   Input file: /Users/vcantarella/wc/phreeqc_in_julia/PhreeqcRM/test/reference_suite/_scripts/../ex5/input.pqi
  Output file: /Users/vcantarella/wc/phreeqc_in_julia/PhreeqcRM/test/reference_suite/_scripts/../ex5/reference/cli.out
Database file: /usr/local/share/doc/phreeqc/database/phreeqc.dat

------------------
Reading data base.
------------------

	SOLUTION_MASTER_SPECIES
	SOLUTION_SPECIES
	PHASES
	EXCHANGE_MASTER_SPECIES
	EXCHANGE_SPECIES
	SURFACE_MASTER_SPECIES
	SURFACE_SPECIES
	RATES
	END
------------------------------------
Reading input data for simulation 1.
------------------------------------

	TITLE Example 5.--Add oxygen, equilibrate with pyrite, calcite, and goethite.
	SOLUTION 1  PURE WATER
	        pH      7.0
	        temp    25.0
	EQUILIBRIUM_PHASES 1
	        Pyrite          0.0
	        Goethite        0.0
	        Calcite         0.0
	        CO2(g)         -3.5
	        Gypsum          0.0     0.0
	REACTION 1
	        O2      1.0
	        NaCl    0.5
	        0.0     0.001   0.005   0.01   0.03   0.05
	SELECTED_OUTPUT
	        file   ex5.sel
	        totals  Cl
	        si     Gypsum
	        equilibrium_phases  pyrite goethite calcite CO2(g) gypsum
	USER_GRAPH Example 5
	        -headings Pyrite Goethite Calcite CO2(g) Gypsum SI_Gypsum
	        -chart_title "Pyrite Oxidation"
	        -axis_titles "O2 added, in millimoles" "Millimoles dissolved"              "Saturation index"
	  10 x = RXN * 1e3
	  20 PLOT_XY x, 1e3 * (10 - EQUI("Pyrite")), symbol = Plus
	  30 PLOT_XY x, 1e3 * (10 - EQUI("Goethite")), symbol = Plus
	  40 PLOT_XY x, 1e3 * (10 - EQUI("Calcite")), symbol = Plus
	  50 PLOT_XY x, 1e3 * (10 - EQUI("CO2(g)")), symbol = Plus
	  60 PLOT_XY x, 1e3 * (-EQUI("Gypsum")), symbol = Plus, color = Magenta
	  70 PLOT_XY x, SI("Gypsum"), y-axis = 2, line_width = 2, symbol = Circle,   	symbol_size = 8, color = Magenta
	END
-----
TITLE
-----

 Example 5.--Add oxygen, equilibrate with pyrite, calcite, and goethite.

-------------------------------------------
Beginning of initial solution calculations.
-------------------------------------------

Initial solution 1.	PURE WATER

-----------------------------Solution composition------------------------------

	Elements           Molality       Moles

	Pure water     

----------------------------Description of solution----------------------------

                                       pH  =   7.000    
                                       pe  =   4.000    
      Specific Conductance (µS/cm,  25°C)  = 0
                          Density (g/cmł)  =   0.99704
                               Volume (L)  =   1.00297
                        Activity of water  =   1.000
                 Ionic strength (mol/kgw)  =   1.007e-07
                       Mass of water (kg)  =   1.000e+00
                 Total alkalinity (eq/kg)  =   1.217e-09
                         Temperature (°C)  =  25.00
                  Electrical balance (eq)  =  -1.217e-09
 Percent error, 100*(Cat-|An|)/(Cat+|An|)  =  -0.60
                               Iterations  =   0
                                  Total H  = 1.110124e+02
                                  Total O  = 5.550622e+01

----------------------------Distribution of species----------------------------

                                               Log       Log       Log    mole V
   Species          Molality    Activity  Molality  Activity     Gamma    cmł/mol

   OH-             1.013e-07   1.012e-07    -6.995    -6.995    -0.000     -4.14
   H+              1.001e-07   1.000e-07    -7.000    -7.000    -0.000      0.00
   H2O             5.551e+01   1.000e+00     1.744     0.000     0.000     18.07
H(0)          1.416e-25
   H2              7.079e-26   7.079e-26   -25.150   -25.150     0.000     28.61
O(0)          0.000e+00
   O2              0.000e+00   0.000e+00   -42.080   -42.080     0.000     30.40

------------------------------Saturation indices-------------------------------

  Phase               SI** log IAP   log K(298 K,   1 atm)

  H2(g)           -22.05    -25.15   -3.10  H2
  H2O(g)           -1.50      0.00    1.50  H2O
  O2(g)           -39.19    -42.08   -2.89  O2

**For a gas, SI = log10(fugacity). Fugacity = pressure * phi / 1 atm.
  For ideal gases, phi = 1.

-----------------------------------------
Beginning of batch-reaction calculations.
-----------------------------------------

Reaction step 1.

Using solution 1.	PURE WATER
Using pure phase assemblage 1.	
Using reaction 1.	

Reaction 1.	

	  0.000e+00 moles of the following reaction have been added:

	                 Relative
	Reactant            moles

	NaCl                 0.50000
	O2                   1.00000

	                 Relative
	Element             moles
	Cl                   0.50000
	Na                   0.50000
	O                    2.00000

-------------------------------Phase assemblage--------------------------------

                                                      Moles in assemblage
Phase               SI  log IAP  log K(T, P)   Initial       Final       Delta

CO2(g)           -3.50    -4.97     -1.47    1.000e+01   1.000e+01  -4.869e-04
Calcite           0.00    -8.48     -8.48    1.000e+01   1.000e+01  -4.933e-04
Goethite         -0.00    -1.00     -1.00    1.000e+01   1.000e+01   1.096e-08
Gypsum           -6.13   -10.71     -4.58    0.000e+00           0   0.000e+00
Pyrite            0.00   -18.48    -18.48    1.000e+01   1.000e+01  -3.144e-08

-----------------------------Solution composition------------------------------

	Elements           Molality       Moles

	C                 9.802e-04   9.802e-04
	Ca                4.933e-04   4.933e-04
	Fe                2.048e-08   2.048e-08
	S                 6.287e-08   6.287e-08

----------------------------Description of solution----------------------------

                                       pH  =   8.279      Charge balance
                                       pe  =  -4.943      Adjusted to redox equilibrium
      Specific Conductance (µS/cm,  25°C)  = 94
                          Density (g/cmł)  =   0.99711
                               Volume (L)  =   1.00297
                        Activity of water  =   1.000
                 Ionic strength (mol/kgw)  =   1.463e-03
                       Mass of water (kg)  =   1.000e+00
                 Total alkalinity (eq/kg)  =   9.866e-04
                       Total CO2 (mol/kg)  =   9.801e-04
                         Temperature (°C)  =  25.00
                  Electrical balance (eq)  =  -1.217e-09
 Percent error, 100*(Cat-|An|)/(Cat+|An|)  =  -0.00
                               Iterations  =  14
                                  Total H  = 1.110124e+02
                                  Total O  = 5.550867e+01

----------------------------Distribution of species----------------------------

                                               Log       Log       Log    mole V
   Species          Molality    Activity  Molality  Activity     Gamma    cmł/mol

   OH-             2.010e-06   1.925e-06    -5.697    -5.716    -0.019     -4.10
   H+              5.475e-09   5.258e-09    -8.262    -8.279    -0.018      0.00
   H2O             5.551e+01   1.000e+00     1.744    -0.000     0.000     18.07
C(-4)         5.384e-08
   CH4             5.384e-08   5.386e-08    -7.269    -7.269     0.000     35.46
C(4)          9.801e-04
   HCO3-           9.493e-04   9.102e-04    -3.023    -3.041    -0.018     24.69
   CO2             1.076e-05   1.076e-05    -4.968    -4.968     0.000     34.43
   CO3-2           9.605e-06   8.118e-06    -5.017    -5.091    -0.073     -5.25
   CaCO3           5.561e-06   5.563e-06    -5.255    -5.255     0.000    -14.60
   CaHCO3+         4.939e-06   4.737e-06    -5.306    -5.324    -0.018      9.68
   FeCO3           2.598e-09   2.599e-09    -8.585    -8.585     0.000     (0)  
   FeHCO3+         1.268e-09   1.215e-09    -8.897    -8.916    -0.019     (0)  
   (CO2)2          2.125e-12   2.125e-12   -11.673   -11.673     0.000     68.87
Ca            4.933e-04
   Ca+2            4.828e-04   4.079e-04    -3.316    -3.389    -0.073    -18.12
   CaCO3           5.561e-06   5.563e-06    -5.255    -5.255     0.000    -14.60
   CaHCO3+         4.939e-06   4.737e-06    -5.306    -5.324    -0.018      9.68
   CaOH+           1.344e-08   1.288e-08    -7.872    -7.890    -0.019     (0)  
   CaSO4           3.483e-09   3.484e-09    -8.458    -8.458     0.000      7.50
   CaHSO4+         1.257e-16   1.204e-16   -15.901   -15.919    -0.019     (0)  
Fe(2)         2.048e-08
   Fe+2            1.577e-08   1.335e-08    -7.802    -7.875    -0.073    -22.11
   FeCO3           2.598e-09   2.599e-09    -8.585    -8.585     0.000     (0)  
   FeHCO3+         1.268e-09   1.215e-09    -8.897    -8.916    -0.019     (0)  
   FeOH+           8.372e-10   8.026e-10    -9.077    -9.096    -0.018     (0)  
   Fe(OH)2         1.299e-12   1.299e-12   -11.887   -11.886     0.000     (0)  
   FeSO4           1.139e-13   1.140e-13   -12.943   -12.943     0.000     18.97
   Fe(OH)3-        9.575e-15   9.179e-15   -14.019   -14.037    -0.018     (0)  
   Fe(HS)2         6.282e-17   6.285e-17   -16.202   -16.202     0.000     (0)  
   FeHSO4+         4.111e-21   3.939e-21   -20.386   -20.405    -0.019     (0)  
   Fe(HS)3-        1.642e-23   1.573e-23   -22.785   -22.803    -0.019     (0)  
Fe(3)         3.369e-14
   Fe(OH)3         2.753e-14   2.754e-14   -13.560   -13.560     0.000     (0)  
   Fe(OH)4-        4.982e-15   4.777e-15   -14.303   -14.321    -0.018     (0)  
   Fe(OH)2+        1.172e-15   1.124e-15   -14.931   -14.949    -0.018     (0)  
   FeOH+2          2.114e-20   1.785e-20   -19.675   -19.748    -0.073     (0)  
   Fe+3            2.091e-26   1.454e-26   -25.680   -25.837    -0.158     (0)  
   FeSO4+          7.987e-30   7.656e-30   -29.098   -29.116    -0.018     (0)  
   Fe(SO4)2-       8.396e-36   8.045e-36   -35.076   -35.094    -0.019     (0)  
   FeHSO4+2        1.279e-37   1.078e-37   -36.893   -36.967    -0.074     (0)  
   Fe2(OH)2+4      1.700e-38   8.577e-39   -37.770   -38.067    -0.297     (0)  
   Fe3(OH)4+5      0.000e+00   0.000e+00   -50.232   -50.696    -0.464     (0)  
H(0)          3.007e-10
   H2              1.504e-10   1.504e-10    -9.823    -9.823     0.000     28.61
O(0)          0.000e+00
   O2              0.000e+00   0.000e+00   -72.735   -72.735     0.000     30.40
S(-2)         2.505e-09
   HS-             2.400e-09   2.299e-09    -8.620    -8.639    -0.019     20.61
   H2S             1.056e-10   1.057e-10    -9.976    -9.976     0.000     36.27
   S-2             6.253e-14   5.280e-14   -13.204   -13.277    -0.073     (0)  
   Fe(HS)2         6.282e-17   6.285e-17   -16.202   -16.202     0.000     (0)  
   (H2S)2          5.883e-22   5.885e-22   -21.230   -21.230     0.000     30.09
   Fe(HS)3-        1.642e-23   1.573e-23   -22.785   -22.803    -0.019     (0)  
S(6)          6.037e-08
   SO4-2           5.688e-08   4.803e-08    -7.245    -7.319    -0.073     14.54
   CaSO4           3.483e-09   3.484e-09    -8.458    -8.458     0.000      7.50
   FeSO4           1.139e-13   1.140e-13   -12.943   -12.943     0.000     18.97
   HSO4-           2.563e-14   2.455e-14   -13.591   -13.610    -0.019     40.28
   CaHSO4+         1.257e-16   1.204e-16   -15.901   -15.919    -0.019     (0)  
   FeHSO4+         4.111e-21   3.939e-21   -20.386   -20.405    -0.019     (0)  
   FeSO4+          7.987e-30   7.656e-30   -29.098   -29.116    -0.018     (0)  
   Fe(SO4)2-       8.396e-36   8.045e-36   -35.076   -35.094    -0.019     (0)  
   FeHSO4+2        1.279e-37   1.078e-37   -36.893   -36.967    -0.074     (0)  

------------------------------Saturation indices-------------------------------

  Phase               SI** log IAP   log K(298 K,   1 atm)

  Anhydrite        -6.43    -10.71   -4.28  CaSO4
  Aragonite        -0.14     -8.48   -8.34  CaCO3
  Calcite           0.00     -8.48   -8.48  CaCO3
  CH4(g)           -4.47     -7.27   -2.80  CH4
  CO2(g)           -3.50     -4.97   -1.47  CO2	 Pressure   0.0 atm, phi 1.000
  Fe(OH)3(a)       -5.89     -1.00    4.89  Fe(OH)3
  FeS(ppt)         -4.32     -8.23   -3.92  FeS
  Goethite         -0.00     -1.00   -1.00  FeOOH
  Gypsum           -6.13    -10.71   -4.58  CaSO4:2H2O
  H2(g)            -6.72     -9.82   -3.10  H2
  H2O(g)           -1.50     -0.00    1.50  H2O
  H2S(g)           -8.98    -16.92   -7.94  H2S
  Hematite          2.01     -2.00   -4.01  Fe2O3
  Mackinawite      -3.59     -8.23   -4.65  FeS
  Melanterite     -12.98    -15.19   -2.21  FeSO4:7H2O
  O2(g)           -69.84    -72.73   -2.89  O2
  Pyrite            0.00    -18.48  -18.48  FeS2
  Siderite         -2.08    -12.97  -10.89  FeCO3
  Sulfur           -8.19     -3.30    4.88  S

**For a gas, SI = log10(fugacity). Fugacity = pressure * phi / 1 atm.
  For ideal gases, phi = 1.

Reaction step 2.

Using solution 1.	PURE WATER
Using pure phase assemblage 1.	
Using reaction 1.	

Reaction 1.	

	  1.000e-03 moles of the following reaction have been added:

	                 Relative
	Reactant            moles

	NaCl                 0.50000
	O2                   1.00000

	                 Relative
	Element             moles
	Cl                   0.50000
	Na                   0.50000
	O                    2.00000

-------------------------------Phase assemblage--------------------------------

                                                      Moles in assemblage
Phase               SI  log IAP  log K(T, P)   Initial       Final       Delta

CO2(g)           -3.50    -4.97     -1.47    1.000e+01   1.000e+01   1.426e-04
Calcite           0.00    -8.48     -8.48    1.000e+01   9.999e+00  -9.269e-04
Goethite          0.00    -1.00     -1.00    1.000e+01   1.000e+01   2.667e-04
Gypsum           -2.01    -6.60     -4.58    0.000e+00           0   0.000e+00
Pyrite            0.00   -18.48    -18.48    1.000e+01   1.000e+01  -2.667e-04

-----------------------------Solution composition------------------------------

	Elements           Molality       Moles

	C                 7.843e-04   7.843e-04
	Ca                9.269e-04   9.269e-04
	Cl                5.000e-04   5.000e-04
	Fe                9.964e-09   9.964e-09
	Na                5.000e-04   5.000e-04
	S                 5.333e-04   5.333e-04

----------------------------Description of solution----------------------------

                                       pH  =   8.170      Charge balance
                                       pe  =  -4.286      Adjusted to redox equilibrium
      Specific Conductance (µS/cm,  25°C)  = 254
                          Density (g/cmł)  =   0.99719
                               Volume (L)  =   1.00298
                        Activity of water  =   1.000
                 Ionic strength (mol/kgw)  =   3.608e-03
                       Mass of water (kg)  =   1.000e+00
                 Total alkalinity (eq/kg)  =   7.871e-04
                       Total CO2 (mol/kg)  =   7.843e-04
                         Temperature (°C)  =  25.00
                  Electrical balance (eq)  =  -1.217e-09
 Percent error, 100*(Cat-|An|)/(Cat+|An|)  =  -0.00
                               Iterations  =  24
                                  Total H  = 1.110122e+02
                                  Total O  = 5.551018e+01

----------------------------Distribution of species----------------------------

                                               Log       Log       Log    mole V
   Species          Molality    Activity  Molality  Activity     Gamma    cmł/mol

   OH-             1.600e-06   1.498e-06    -5.796    -5.825    -0.029     -4.08
   H+              7.174e-09   6.757e-09    -8.144    -8.170    -0.026      0.00
   H2O             5.551e+01   9.999e-01     1.744    -0.000     0.000     18.07
C(-4)         2.209e-12
   CH4             2.209e-12   2.211e-12   -11.656   -11.655     0.000     35.46
C(4)          7.843e-04
   HCO3-           7.549e-04   7.083e-04    -3.122    -3.150    -0.028     24.72
   CO2             1.075e-05   1.076e-05    -4.969    -4.968     0.000     34.43
   CaHCO3+         6.484e-06   6.087e-06    -5.188    -5.216    -0.027      9.69
   CO3-2           6.344e-06   4.916e-06    -5.198    -5.308    -0.111     -5.16
   CaCO3           5.559e-06   5.563e-06    -5.255    -5.255     0.000    -14.60
   NaHCO3          1.861e-07   1.863e-07    -6.730    -6.730     0.000      1.80
   NaCO3-          4.569e-08   4.281e-08    -7.340    -7.368    -0.028     -0.99
   FeCO3           7.347e-10   7.353e-10    -9.134    -9.134     0.000     (0)  
   FeHCO3+         4.714e-10   4.416e-10    -9.327    -9.355    -0.028     (0)  
   (CO2)2          2.124e-12   2.125e-12   -11.673   -11.673     0.000     68.87
Ca            9.269e-04
   Ca+2            8.697e-04   6.736e-04    -3.061    -3.172    -0.111    -18.05
   CaSO4           4.510e-05   4.514e-05    -4.346    -4.345     0.000      7.50
   CaHCO3+         6.484e-06   6.087e-06    -5.188    -5.216    -0.027      9.69
   CaCO3           5.559e-06   5.563e-06    -5.255    -5.255     0.000    -14.60
   CaOH+           1.766e-08   1.654e-08    -7.753    -7.781    -0.028     (0)  
   CaHSO4+         2.140e-12   2.005e-12   -11.670   -11.698    -0.028     (0)  
Cl            5.000e-04
   Cl-             5.000e-04   4.682e-04    -3.301    -3.330    -0.029     18.10
   FeCl+           4.302e-12   4.030e-12   -11.366   -11.395    -0.028     (0)  
   FeCl+2          5.640e-28   4.362e-28   -27.249   -27.360    -0.112     (0)  
   FeCl2+          9.729e-31   9.124e-31   -30.012   -30.040    -0.028     (0)  
   FeCl3           4.268e-35   4.272e-35   -34.370   -34.369     0.000     (0)  
Fe(2)         9.964e-09
   Fe+2            8.024e-09   6.235e-09    -8.096    -8.205    -0.110    -22.04
   FeCO3           7.347e-10   7.353e-10    -9.134    -9.134     0.000     (0)  
   FeHCO3+         4.714e-10   4.416e-10    -9.327    -9.355    -0.028     (0)  
   FeSO4           4.174e-10   4.178e-10    -9.379    -9.379     0.000     18.97
   FeOH+           3.111e-10   2.918e-10    -9.507    -9.535    -0.028     (0)  
   FeCl+           4.302e-12   4.030e-12   -11.366   -11.395    -0.028     (0)  
   Fe(OH)2         3.672e-13   3.675e-13   -12.435   -12.435     0.000     (0)  
   Fe(OH)3-        2.155e-15   2.021e-15   -14.667   -14.694    -0.028     (0)  
   FeHSO4+         1.981e-17   1.856e-17   -16.703   -16.732    -0.028     (0)  
   Fe(HS)2         5.026e-18   5.030e-18   -17.299   -17.298     0.000     (0)  
   Fe(HS)3-        5.563e-25   5.212e-25   -24.255   -24.283    -0.028     (0)  
Fe(3)         3.302e-14
   Fe(OH)3         2.752e-14   2.754e-14   -13.560   -13.560     0.000     (0)  
   Fe(OH)4-        3.962e-15   3.717e-15   -14.402   -14.430    -0.028     (0)  
   Fe(OH)2+        1.540e-15   1.445e-15   -14.813   -14.840    -0.028     (0)  
   FeOH+2          3.811e-20   2.948e-20   -19.419   -19.530    -0.112     (0)  
   FeSO4+          1.359e-25   1.275e-25   -24.867   -24.895    -0.028     (0)  
   Fe+3            5.290e-26   3.085e-26   -25.277   -25.511    -0.234     (0)  
   Fe(SO4)2-       1.122e-27   1.051e-27   -26.950   -26.979    -0.028     (0)  
   FeCl+2          5.640e-28   4.362e-28   -27.249   -27.360    -0.112     (0)  
   FeCl2+          9.729e-31   9.124e-31   -30.012   -30.040    -0.028     (0)  
   FeHSO4+2        2.994e-33   2.306e-33   -32.524   -32.637    -0.113     (0)  
   FeCl3           4.268e-35   4.272e-35   -34.370   -34.369     0.000     (0)  
   Fe2(OH)2+4      6.646e-38   2.339e-38   -37.177   -37.631    -0.454     (0)  
   Fe3(OH)4+5      0.000e+00   0.000e+00   -49.443   -50.151    -0.709     (0)  
H(0)          2.406e-11
   H2              1.203e-11   1.204e-11   -10.920   -10.919     0.000     28.61
Na            5.000e-04
   Na+             4.988e-04   4.676e-04    -3.302    -3.330    -0.028     -1.44
   NaSO4-          9.412e-07   8.831e-07    -6.026    -6.054    -0.028     13.98
   NaHCO3          1.861e-07   1.863e-07    -6.730    -6.730     0.000      1.80
   NaCO3-          4.569e-08   4.281e-08    -7.340    -7.368    -0.028     -0.99
   NaOH            6.999e-20   7.005e-20   -19.155   -19.155     0.000     (0)  
O(0)          0.000e+00
   O2              0.000e+00   0.000e+00   -70.542   -70.541     0.000     30.40
S(-2)         1.073e-09
   HS-             1.016e-09   9.515e-10    -8.993    -9.022    -0.029     20.63
   H2S             5.616e-11   5.621e-11   -10.251   -10.250     0.000     36.27
   S-2             2.199e-14   1.701e-14   -13.658   -13.769    -0.112     (0)  
   Fe(HS)2         5.026e-18   5.030e-18   -17.299   -17.298     0.000     (0)  
   (H2S)2          1.663e-22   1.665e-22   -21.779   -21.779     0.000     30.09
   Fe(HS)3-        5.563e-25   5.212e-25   -24.255   -24.283    -0.028     (0)  
S(6)          5.333e-04
   SO4-2           4.873e-04   3.768e-04    -3.312    -3.424    -0.112     14.62
   CaSO4           4.510e-05   4.514e-05    -4.346    -4.345     0.000      7.50
   NaSO4-          9.412e-07   8.831e-07    -6.026    -6.054    -0.028     13.98
   FeSO4           4.174e-10   4.178e-10    -9.379    -9.379     0.000     18.97
   HSO4-           2.642e-10   2.475e-10    -9.578    -9.606    -0.028     40.30
   CaHSO4+         2.140e-12   2.005e-12   -11.670   -11.698    -0.028     (0)  
   FeHSO4+         1.981e-17   1.856e-17   -16.703   -16.732    -0.028     (0)  
   FeSO4+          1.359e-25   1.275e-25   -24.867   -24.895    -0.028     (0)  
   Fe(SO4)2-       1.122e-27   1.051e-27   -26.950   -26.979    -0.028     (0)  
   FeHSO4+2        2.994e-33   2.306e-33   -32.524   -32.637    -0.113     (0)  

------------------------------Saturation indices-------------------------------

  Phase               SI** log IAP   log K(298 K,   1 atm)

  Anhydrite        -2.32     -6.60   -4.28  CaSO4
  Aragonite        -0.14     -8.48   -8.34  CaCO3
  Calcite           0.00     -8.48   -8.48  CaCO3
  CH4(g)           -8.85    -11.66   -2.80  CH4
  CO2(g)           -3.50     -4.97   -1.47  CO2	 Pressure   0.0 atm, phi 1.000
  Fe(OH)3(a)       -5.89     -1.00    4.89  Fe(OH)3
  FeS(ppt)         -5.14     -9.06   -3.92  FeS
  Goethite          0.00     -1.00   -1.00  FeOOH
  Gypsum           -2.01     -6.60   -4.58  CaSO4:2H2O
  H2(g)            -7.82    -10.92   -3.10  H2
  H2O(g)           -1.50     -0.00    1.50  H2O
  H2S(g)           -9.26    -17.19   -7.94  H2S
  Halite           -8.23     -6.66    1.57  NaCl
  Hematite          2.01     -2.00   -4.01  Fe2O3
  Mackinawite      -4.41     -9.06   -4.65  FeS
  Melanterite      -9.42    -11.63   -2.21  FeSO4:7H2O
  O2(g)           -67.65    -70.54   -2.89  O2
  Pyrite            0.00    -18.48  -18.48  FeS2
  Siderite         -2.62    -13.51  -10.89  FeCO3
  Sulfur           -7.36     -2.48    4.88  S

**For a gas, SI = log10(fugacity). Fugacity = pressure * phi / 1 atm.
  For ideal gases, phi = 1.

Reaction step 3.

Using solution 1.	PURE WATER
Using pure phase assemblage 1.	
Using reaction 1.	

Reaction 1.	

	  5.000e-03 moles of the following reaction have been added:

	                 Relative
	Reactant            moles

	NaCl                 0.50000
	O2                   1.00000

	                 Relative
	Element             moles
	Cl                   0.50000
	Na                   0.50000
	O                    2.00000

-------------------------------Phase assemblage--------------------------------

                                                      Moles in assemblage
Phase               SI  log IAP  log K(T, P)   Initial       Final       Delta

CO2(g)           -3.50    -4.97     -1.47    1.000e+01   1.000e+01   2.397e-03
Calcite           0.00    -8.48     -8.48    1.000e+01   9.997e+00  -2.936e-03
Goethite         -0.00    -1.00     -1.00    1.000e+01   1.000e+01   1.333e-03
Gypsum           -1.05    -5.63     -4.58    0.000e+00           0   0.000e+00
Pyrite            0.00   -18.48    -18.48    1.000e+01   9.999e+00  -1.333e-03

-----------------------------Solution composition------------------------------

	Elements           Molality       Moles

	C                 5.394e-04   5.394e-04
	Ca                2.936e-03   2.936e-03
	Cl                2.500e-03   2.500e-03
	Fe                2.149e-08   2.149e-08
	Na                2.500e-03   2.500e-03
	S                 2.667e-03   2.667e-03

----------------------------Description of solution----------------------------

                                       pH  =   7.980      Charge balance
                                       pe  =  -3.966      Adjusted to redox equilibrium
      Specific Conductance (µS/cm,  25°C)  = 863
                          Density (g/cmł)  =   0.99755
                               Volume (L)  =   1.00300
                        Activity of water  =   1.000
                 Ionic strength (mol/kgw)  =   1.225e-02
                       Mass of water (kg)  =   1.000e+00
                 Total alkalinity (eq/kg)  =   5.386e-04
                       Total CO2 (mol/kg)  =   5.394e-04
                         Temperature (°C)  =  25.00
                  Electrical balance (eq)  =  -1.150e-09
 Percent error, 100*(Cat-|An|)/(Cat+|An|)  =  -0.00
                               Iterations  =  24
                                  Total H  = 1.110111e+02
                                  Total O  = 5.551756e+01

----------------------------Distribution of species----------------------------

                                               Log       Log       Log    mole V
   Species          Molality    Activity  Molality  Activity     Gamma    cmł/mol

   OH-             1.083e-06   9.653e-07    -5.965    -6.015    -0.050     -4.02
   H+              1.156e-08   1.048e-08    -7.937    -7.980    -0.043      0.00
   H2O             5.551e+01   9.998e-01     1.744    -0.000     0.000     18.07
C(-4)         2.069e-13
   CH4             2.069e-13   2.075e-13   -12.684   -12.683     0.001     35.46
C(4)          5.394e-04
   HCO3-           5.088e-04   4.564e-04    -3.293    -3.341    -0.047     24.78
   CO2             1.073e-05   1.076e-05    -4.969    -4.968     0.001     34.43
   CaHCO3+         1.051e-05   9.445e-06    -4.978    -5.025    -0.046      9.73
   CaCO3           5.547e-06   5.563e-06    -5.256    -5.255     0.001    -14.60
   CO3-2           3.153e-06   2.042e-06    -5.501    -5.690    -0.189     -4.97
   NaHCO3          5.685e-07   5.701e-07    -6.245    -6.244     0.001      1.80
   NaCO3-          9.453e-08   8.445e-08    -7.024    -7.073    -0.049     -0.90
   FeHCO3+         5.706e-10   5.098e-10    -9.244    -9.293    -0.049     (0)  
   FeCO3           5.455e-10   5.471e-10    -9.263    -9.262     0.001     (0)  
   (CO2)2          2.119e-12   2.125e-12   -11.674   -11.673     0.001     68.87
Ca            2.936e-03
   Ca+2            2.506e-03   1.622e-03    -2.601    -2.790    -0.189    -17.90
   CaSO4           4.136e-04   4.147e-04    -3.383    -3.382     0.001      7.50
   CaHCO3+         1.051e-05   9.445e-06    -4.978    -5.025    -0.046      9.73
   CaCO3           5.547e-06   5.563e-06    -5.256    -5.255     0.001    -14.60
   CaOH+           2.873e-08   2.567e-08    -7.542    -7.591    -0.049     (0)  
   CaHSO4+         3.199e-11   2.858e-11   -10.495   -10.544    -0.049     (0)  
Cl            2.500e-03
   Cl-             2.500e-03   2.230e-03    -2.602    -2.652    -0.050     18.15
   FeCl+           3.848e-11   3.438e-11   -10.415   -10.464    -0.049     (0)  
   FeCl+2          1.205e-26   7.761e-27   -25.919   -26.110    -0.191     (0)  
   FeCl2+          8.630e-29   7.731e-29   -28.064   -28.112    -0.048     (0)  
   FeCl3           1.719e-32   1.724e-32   -31.765   -31.763     0.001     (0)  
Fe(2)         2.149e-08
   Fe+2            1.711e-08   1.117e-08    -7.767    -7.952    -0.185    -21.90
   FeSO4           2.848e-09   2.856e-09    -8.545    -8.544     0.001     18.97
   FeHCO3+         5.706e-10   5.098e-10    -9.244    -9.293    -0.049     (0)  
   FeCO3           5.455e-10   5.471e-10    -9.263    -9.262     0.001     (0)  
   FeOH+           3.760e-10   3.368e-10    -9.425    -9.473    -0.048     (0)  
   FeCl+           3.848e-11   3.438e-11   -10.415   -10.464    -0.049     (0)  
   Fe(OH)2         2.727e-13   2.734e-13   -12.564   -12.563     0.001     (0)  
   Fe(OH)3-        1.082e-15   9.689e-16   -14.966   -15.014    -0.048     (0)  
   FeHSO4+         2.203e-16   1.968e-16   -15.657   -15.706    -0.049     (0)  
   Fe(HS)2         2.776e-18   2.784e-18   -17.557   -17.555     0.001     (0)  
   Fe(HS)3-        1.795e-25   1.603e-25   -24.746   -24.795    -0.049     (0)  
Fe(3)         3.263e-14
   Fe(OH)3         2.746e-14   2.754e-14   -13.561   -13.560     0.001     (0)  
   Fe(OH)4-        2.670e-15   2.395e-15   -14.573   -14.621    -0.047     (0)  
   Fe(OH)2+        2.499e-15   2.241e-15   -14.602   -14.650    -0.047     (0)  
   FeOH+2          1.102e-19   7.097e-20   -18.958   -19.149    -0.191     (0)  
   FeSO4+          2.029e-24   1.817e-24   -23.693   -23.741    -0.048     (0)  
   Fe+3            2.783e-25   1.153e-25   -24.556   -24.938    -0.383     (0)  
   Fe(SO4)2-       6.400e-26   5.718e-26   -25.194   -25.243    -0.049     (0)  
   FeCl+2          1.205e-26   7.761e-27   -25.919   -26.110    -0.191     (0)  
   FeCl2+          8.630e-29   7.731e-29   -28.064   -28.112    -0.048     (0)  
   FeHSO4+2        8.008e-32   5.102e-32   -31.096   -31.292    -0.196     (0)  
   FeCl3           1.719e-32   1.724e-32   -31.765   -31.763     0.001     (0)  
   Fe2(OH)2+4      8.229e-37   1.356e-37   -36.085   -36.868    -0.783     (0)  
   Fe3(OH)4+5      0.000e+00   0.000e+00   -47.974   -49.197    -1.224     (0)  
H(0)          1.329e-11
   H2              6.644e-12   6.663e-12   -11.178   -11.176     0.001     28.61
Na            2.500e-03
   Na+             2.482e-03   2.221e-03    -2.605    -2.653    -0.048     -1.36
   NaSO4-          1.785e-05   1.601e-05    -4.748    -4.796    -0.047     14.42
   NaHCO3          5.685e-07   5.701e-07    -6.245    -6.244     0.001      1.80
   NaCO3-          9.453e-08   8.445e-08    -7.024    -7.073    -0.049     -0.90
   NaOH            2.138e-19   2.144e-19   -18.670   -18.669     0.001     (0)  
O(0)          0.000e+00
   O2              0.000e+00   0.000e+00   -70.029   -70.028     0.001     30.40
S(-2)         6.418e-10
   HS-             5.935e-10   5.289e-10    -9.227    -9.277    -0.050     20.68
   H2S             4.834e-11   4.848e-11   -10.316   -10.314     0.001     36.27
   S-2             9.460e-15   6.093e-15   -14.024   -14.215    -0.191     (0)  
   Fe(HS)2         2.776e-18   2.784e-18   -17.557   -17.555     0.001     (0)  
   (H2S)2          1.235e-22   1.238e-22   -21.908   -21.907     0.001     30.09
   Fe(HS)3-        1.795e-25   1.603e-25   -24.746   -24.795    -0.049     (0)  
S(6)          2.667e-03
   SO4-2           2.235e-03   1.438e-03    -2.651    -2.842    -0.192     14.81
   CaSO4           4.136e-04   4.147e-04    -3.383    -3.382     0.001      7.50
   NaSO4-          1.785e-05   1.601e-05    -4.748    -4.796    -0.047     14.42
   FeSO4           2.848e-09   2.856e-09    -8.545    -8.544     0.001     18.97
   HSO4-           1.641e-09   1.466e-09    -8.785    -8.834    -0.049     40.35
   CaHSO4+         3.199e-11   2.858e-11   -10.495   -10.544    -0.049     (0)  
   FeHSO4+         2.203e-16   1.968e-16   -15.657   -15.706    -0.049     (0)  
   FeSO4+          2.029e-24   1.817e-24   -23.693   -23.741    -0.048     (0)  
   Fe(SO4)2-       6.400e-26   5.718e-26   -25.194   -25.243    -0.049     (0)  
   FeHSO4+2        8.008e-32   5.102e-32   -31.096   -31.292    -0.196     (0)  

------------------------------Saturation indices-------------------------------

  Phase               SI** log IAP   log K(298 K,   1 atm)

  Anhydrite        -1.35     -5.63   -4.28  CaSO4
  Aragonite        -0.14     -8.48   -8.34  CaCO3
  Calcite           0.00     -8.48   -8.48  CaCO3
  CH4(g)           -9.88    -12.68   -2.80  CH4
  CO2(g)           -3.50     -4.97   -1.47  CO2	 Pressure   0.0 atm, phi 1.000
  Fe(OH)3(a)       -5.89     -1.00    4.89  Fe(OH)3
  FeS(ppt)         -5.33     -9.25   -3.92  FeS
  Goethite         -0.00     -1.00   -1.00  FeOOH
  Gypsum           -1.05     -5.63   -4.58  CaSO4:2H2O
  H2(g)            -8.08    -11.18   -3.10  H2
  H2O(g)           -1.50     -0.00    1.50  H2O
  H2S(g)           -9.32    -17.26   -7.94  H2S
  Halite           -6.88     -5.31    1.57  NaCl
  Hematite          2.01     -2.00   -4.01  Fe2O3
  Mackinawite      -4.60     -9.25   -4.65  FeS
  Melanterite      -8.59    -10.79   -2.21  FeSO4:7H2O
  O2(g)           -67.14    -70.03   -2.89  O2
  Pyrite            0.00    -18.48  -18.48  FeS2
  Siderite         -2.75    -13.64  -10.89  FeCO3
  Sulfur           -7.17     -2.29    4.88  S

**For a gas, SI = log10(fugacity). Fugacity = pressure * phi / 1 atm.
  For ideal gases, phi = 1.

Reaction step 4.

Using solution 1.	PURE WATER
Using pure phase assemblage 1.	
Using reaction 1.	

Reaction 1.	

	  1.000e-02 moles of the following reaction have been added:

	                 Relative
	Reactant            moles

	NaCl                 0.50000
	O2                   1.00000

	                 Relative
	Element             moles
	Cl                   0.50000
	Na                   0.50000
	O                    2.00000

-------------------------------Phase assemblage--------------------------------

                                                      Moles in assemblage
Phase               SI  log IAP  log K(T, P)   Initial       Final       Delta

CO2(g)           -3.50    -4.97     -1.47    1.000e+01   1.001e+01   5.107e-03
Calcite           0.00    -8.48     -8.48    1.000e+01   9.994e+00  -5.558e-03
Goethite          0.00    -1.00     -1.00    1.000e+01   1.000e+01   2.667e-03
Gypsum           -0.63    -5.22     -4.58    0.000e+00           0   0.000e+00
Pyrite           -0.00   -18.48    -18.48    1.000e+01   9.997e+00  -2.667e-03

-----------------------------Solution composition------------------------------

	Elements           Molality       Moles

	C                 4.509e-04   4.509e-04
	Ca                5.558e-03   5.558e-03
	Cl                5.000e-03   5.000e-03
	Fe                3.489e-08   3.489e-08
	Na                5.000e-03   5.000e-03
	S                 5.333e-03   5.333e-03

----------------------------Description of solution----------------------------

                                       pH  =   7.881      Charge balance
                                       pe  =  -3.812      Adjusted to redox equilibrium
      Specific Conductance (µS/cm,  25°C)  = 1562
                          Density (g/cmł)  =   0.99801
                               Volume (L)  =   1.00303
                        Activity of water  =   1.000
                 Ionic strength (mol/kgw)  =   2.254e-02
                       Mass of water (kg)  =   1.000e+00
                 Total alkalinity (eq/kg)  =   4.491e-04
                       Total CO2 (mol/kg)  =   4.509e-04
                         Temperature (°C)  =  25.00
                  Electrical balance (eq)  =  -1.217e-09
 Percent error, 100*(Cat-|An|)/(Cat+|An|)  =  -0.00
                               Iterations  =  25
                                  Total H  = 1.110098e+02
                                  Total O  = 5.552734e+01

----------------------------Distribution of species----------------------------

                                               Log       Log       Log    mole V
   Species          Molality    Activity  Molality  Activity     Gamma    cmł/mol

   OH-             8.936e-07   7.688e-07    -6.049    -6.114    -0.065     -3.97
   H+              1.487e-08   1.316e-08    -7.828    -7.881    -0.053      0.00
   H2O             5.551e+01   9.997e-01     1.744    -0.000     0.000     18.07
C(-4)         7.422e-14
   CH4             7.422e-14   7.461e-14   -13.129   -13.127     0.002     35.46
C(4)          4.509e-04
   HCO3-           4.179e-04   3.635e-04    -3.379    -3.439    -0.060     24.84
   CaHCO3+         1.358e-05   1.186e-05    -4.867    -4.926    -0.059      9.76
   CO2             1.070e-05   1.076e-05    -4.970    -4.968     0.002     34.43
   CaCO3           5.534e-06   5.563e-06    -5.257    -5.255     0.002    -14.60
   CO3-2           2.261e-06   1.295e-06    -5.646    -5.888    -0.242     -4.81
   NaHCO3          8.713e-07   8.758e-07    -6.060    -6.058     0.002      1.80
   NaCO3-          1.195e-07   1.033e-07    -6.923    -6.986    -0.063     -0.82
   FeHCO3+         6.513e-10   5.632e-10    -9.186    -9.249    -0.063     (0)  
   FeCO3           4.790e-10   4.815e-10    -9.320    -9.317     0.002     (0)  
   (CO2)2          2.114e-12   2.125e-12   -11.675   -11.673     0.002     68.87
Ca            5.558e-03
   Ca+2            4.463e-03   2.556e-03    -2.350    -2.592    -0.242    -17.79
   CaSO4           1.076e-03   1.082e-03    -2.968    -2.966     0.002      7.50
   CaHCO3+         1.358e-05   1.186e-05    -4.867    -4.926    -0.059      9.76
   CaCO3           5.534e-06   5.563e-06    -5.257    -5.255     0.002    -14.60
   CaOH+           3.727e-08   3.222e-08    -7.429    -7.492    -0.063     (0)  
   CaHSO4+         1.082e-10   9.357e-11    -9.966   -10.029    -0.063     (0)  
Cl            5.000e-03
   Cl-             5.000e-03   4.309e-03    -2.301    -2.366    -0.065     18.19
   FeCl+           1.066e-10   9.216e-11    -9.972   -10.035    -0.063     (0)  
   FeCl+2          5.227e-26   2.968e-26   -25.282   -25.527    -0.246     (0)  
   FeCl2+          6.582e-28   5.714e-28   -27.182   -27.243    -0.061     (0)  
   FeCl3           2.450e-31   2.462e-31   -30.611   -30.609     0.002     (0)  
Fe(2)         3.489e-08
   Fe+2            2.670e-08   1.549e-08    -7.574    -7.810    -0.236    -21.80
   FeSO4           6.522e-09   6.556e-09    -8.186    -8.183     0.002     18.97
   FeHCO3+         6.513e-10   5.632e-10    -9.186    -9.249    -0.063     (0)  
   FeCO3           4.790e-10   4.815e-10    -9.320    -9.317     0.002     (0)  
   FeOH+           4.287e-10   3.721e-10    -9.368    -9.429    -0.061     (0)  
   FeCl+           1.066e-10   9.216e-11    -9.972   -10.035    -0.063     (0)  
   Fe(OH)2         2.394e-13   2.406e-13   -12.621   -12.619     0.002     (0)  
   Fe(OH)3-        7.822e-16   6.790e-16   -15.107   -15.168    -0.061     (0)  
   FeHSO4+         6.558e-16   5.671e-16   -15.183   -15.246    -0.063     (0)  
   Fe(HS)2         2.145e-18   2.156e-18   -17.669   -17.666     0.002     (0)  
   Fe(HS)3-        1.073e-25   9.275e-26   -24.970   -25.033    -0.063     (0)  
Fe(3)         3.282e-14
   Fe(OH)3         2.739e-14   2.753e-14   -13.562   -13.560     0.002     (0)  
   Fe(OH)2+        3.234e-15   2.814e-15   -14.490   -14.551    -0.060     (0)  
   Fe(OH)4-        2.192e-15   1.907e-15   -14.659   -14.720    -0.060     (0)  
   FeOH+2          1.970e-19   1.119e-19   -18.706   -18.951    -0.246     (0)  
   FeSO4+          6.855e-24   5.951e-24   -23.164   -23.225    -0.061     (0)  
   Fe+3            6.846e-25   2.281e-25   -24.165   -24.642    -0.477     (0)  
   Fe(SO4)2-       3.583e-25   3.098e-25   -24.446   -24.509    -0.063     (0)  
   FeCl+2          5.227e-26   2.968e-26   -25.282   -25.527    -0.246     (0)  
   FeCl2+          6.582e-28   5.714e-28   -27.182   -27.243    -0.061     (0)  
   FeHSO4+2        3.751e-31   2.097e-31   -30.426   -30.678    -0.253     (0)  
   FeCl3           2.450e-31   2.462e-31   -30.611   -30.609     0.002     (0)  
   Fe2(OH)2+4      3.447e-36   3.368e-37   -35.463   -36.473    -1.010     (0)  
   Fe3(OH)4+5      0.000e+00   0.000e+00   -47.125   -48.703    -1.578     (0)  
H(0)          1.027e-11
   H2              5.133e-12   5.159e-12   -11.290   -11.287     0.002     28.61
Na            5.000e-03
   Na+             4.940e-03   4.284e-03    -2.306    -2.368    -0.062     -1.31
   NaSO4-          5.873e-05   5.109e-05    -4.231    -4.292    -0.060     14.77
   NaHCO3          8.713e-07   8.758e-07    -6.060    -6.058     0.002      1.80
   NaCO3-          1.195e-07   1.033e-07    -6.923    -6.986    -0.063     -0.82
   NaOH            3.277e-19   3.294e-19   -18.485   -18.482     0.002     (0)  
O(0)          0.000e+00
   O2              0.000e+00   0.000e+00   -69.808   -69.805     0.002     30.40
S(-2)         5.045e-10
   HS-             4.592e-10   3.951e-10    -9.338    -9.403    -0.065     20.71
   H2S             4.523e-11   4.547e-11   -10.345   -10.342     0.002     36.27
   S-2             6.385e-15   3.626e-15   -14.195   -14.441    -0.246     (0)  
   Fe(HS)2         2.145e-18   2.156e-18   -17.669   -17.666     0.002     (0)  
   (H2S)2          1.084e-22   1.089e-22   -21.965   -21.963     0.002     30.09
   Fe(HS)3-        1.073e-25   9.275e-26   -24.970   -25.033    -0.063     (0)  
S(6)          5.333e-03
   SO4-2           4.199e-03   2.380e-03    -2.377    -2.624    -0.247     14.96
   CaSO4           1.076e-03   1.082e-03    -2.968    -2.966     0.002      7.50
   NaSO4-          5.873e-05   5.109e-05    -4.231    -4.292    -0.060     14.77
   FeSO4           6.522e-09   6.556e-09    -8.186    -8.183     0.002     18.97
   HSO4-           3.521e-09   3.045e-09    -8.453    -8.516    -0.063     40.39
   CaHSO4+         1.082e-10   9.357e-11    -9.966   -10.029    -0.063     (0)  
   FeHSO4+         6.558e-16   5.671e-16   -15.183   -15.246    -0.063     (0)  
   FeSO4+          6.855e-24   5.951e-24   -23.164   -23.225    -0.061     (0)  
   Fe(SO4)2-       3.583e-25   3.098e-25   -24.446   -24.509    -0.063     (0)  
   FeHSO4+2        3.751e-31   2.097e-31   -30.426   -30.678    -0.253     (0)  

------------------------------Saturation indices-------------------------------

  Phase               SI** log IAP   log K(298 K,   1 atm)

  Anhydrite        -0.94     -5.22   -4.28  CaSO4
  Aragonite        -0.14     -8.48   -8.34  CaCO3
  Calcite           0.00     -8.48   -8.48  CaCO3
  CH4(g)          -10.33    -13.13   -2.80  CH4
  CO2(g)           -3.50     -4.97   -1.47  CO2	 Pressure   0.0 atm, phi 1.000
  Fe(OH)3(a)       -5.89     -1.00    4.89  Fe(OH)3
  FeS(ppt)         -5.42     -9.33   -3.92  FeS
  Goethite          0.00     -1.00   -1.00  FeOOH
  Gypsum           -0.63     -5.22   -4.58  CaSO4:2H2O
  H2(g)            -8.19    -11.29   -3.10  H2
  H2O(g)           -1.50     -0.00    1.50  H2O
  H2S(g)           -9.35    -17.28   -7.94  H2S
  Halite           -6.30     -4.73    1.57  NaCl
  Hematite          2.01     -2.00   -4.01  Fe2O3
  Mackinawite      -4.68     -9.33   -4.65  FeS
  Melanterite      -8.23    -10.43   -2.21  FeSO4:7H2O
  O2(g)           -66.91    -69.81   -2.89  O2
  Pyrite           -0.00    -18.48  -18.48  FeS2
  Siderite         -2.81    -13.70  -10.89  FeCO3
  Sulfur           -7.09     -2.20    4.88  S

**For a gas, SI = log10(fugacity). Fugacity = pressure * phi / 1 atm.
  For ideal gases, phi = 1.

Reaction step 5.

Using solution 1.	PURE WATER
Using pure phase assemblage 1.	
Using reaction 1.	

Reaction 1.	

	  3.000e-02 moles of the following reaction have been added:

	                 Relative
	Reactant            moles

	NaCl                 0.50000
	O2                   1.00000

	                 Relative
	Element             moles
	Cl                   0.50000
	Na                   0.50000
	O                    2.00000

-------------------------------Phase assemblage--------------------------------

                                                      Moles in assemblage
Phase               SI  log IAP  log K(T, P)   Initial       Final       Delta

CO2(g)           -3.50    -4.97     -1.47    1.000e+01   1.002e+01   1.582e-02
Calcite           0.00    -8.48     -8.48    1.000e+01   9.984e+00  -1.617e-02
Goethite          0.00    -1.00     -1.00    1.000e+01   1.001e+01   8.000e-03
Gypsum           -0.01    -4.59     -4.58    0.000e+00           0   0.000e+00
Pyrite            0.00   -18.48    -18.48    1.000e+01   9.992e+00  -8.000e-03

-----------------------------Solution composition------------------------------

	Elements           Molality       Moles

	C                 3.506e-04   3.505e-04
	Ca                1.617e-02   1.617e-02
	Cl                1.500e-02   1.500e-02
	Fe                8.190e-08   8.189e-08
	Na                1.500e-02   1.500e-02
	S                 1.600e-02   1.600e-02

----------------------------Description of solution----------------------------

                                       pH  =   7.725      Charge balance
                                       pe  =  -3.573      Adjusted to redox equilibrium
      Specific Conductance (µS/cm,  25°C)  = 4056
                          Density (g/cmł)  =   0.99985
                               Volume (L)  =   1.00316
                        Activity of water  =   0.999
                 Ionic strength (mol/kgw)  =   6.087e-02
                       Mass of water (kg)  =   9.999e-01
                 Total alkalinity (eq/kg)  =   3.477e-04
                       Total CO2 (mol/kg)  =   3.506e-04
                         Temperature (°C)  =  25.00
                  Electrical balance (eq)  =  -1.211e-09
 Percent error, 100*(Cat-|An|)/(Cat+|An|)  =  -0.00
                               Iterations  =  25
                                  Total H  = 1.110044e+02
                                  Total O  = 5.556709e+01

----------------------------Distribution of species----------------------------

                                               Log       Log       Log    mole V
   Species          Molality    Activity  Molality  Activity     Gamma    cmł/mol

   OH-             6.729e-07   5.369e-07    -6.172    -6.270    -0.098     -3.84
   H+              2.227e-08   1.883e-08    -7.652    -7.725    -0.073      0.00
   H2O             5.551e+01   9.990e-01     1.744    -0.000     0.000     18.07
C(-4)         1.592e-14
   CH4             1.592e-14   1.615e-14   -13.798   -13.792     0.006     35.46
C(4)          3.506e-04
   HCO3-           3.106e-04   2.539e-04    -3.508    -3.595    -0.088     25.02
   CaHCO3+         2.062e-05   1.697e-05    -4.686    -4.770    -0.085      9.81
   CO2             1.061e-05   1.076e-05    -4.974    -4.968     0.006     34.43
   CaCO3           5.486e-06   5.563e-06    -5.261    -5.255     0.006    -14.60
   NaHCO3          1.677e-06   1.701e-06    -5.775    -5.769     0.006      1.80
   CO3-2           1.416e-06   6.322e-07    -5.849    -6.199    -0.350     -4.43
   NaCO3-          1.732e-07   1.403e-07    -6.761    -6.853    -0.092     -0.55
   FeHCO3+         8.223e-10   6.659e-10    -9.085    -9.177    -0.092     (0)  
   FeCO3           3.923e-10   3.978e-10    -9.406    -9.400     0.006     (0)  
   (CO2)2          2.096e-12   2.125e-12   -11.679   -11.673     0.006     68.87
Ca            1.617e-02
   Ca+2            1.168e-02   5.238e-03    -1.933    -2.281    -0.348    -17.57
   CaSO4           4.473e-03   4.536e-03    -2.349    -2.343     0.006      7.50
   CaHCO3+         2.062e-05   1.697e-05    -4.686    -4.770    -0.085      9.81
   CaCO3           5.486e-06   5.563e-06    -5.261    -5.255     0.006    -14.60
   CaOH+           5.694e-08   4.611e-08    -7.245    -7.336    -0.092     (0)  
   CaHSO4+         6.934e-10   5.615e-10    -9.159    -9.251    -0.092     (0)  
Cl            1.500e-02
   Cl-             1.500e-02   1.202e-02    -1.824    -1.920    -0.096     18.27
   FeCl+           5.375e-10   4.352e-10    -9.270    -9.361    -0.092     (0)  
   FeCl+2          5.542e-25   2.429e-25   -24.256   -24.615    -0.358     (0)  
   FeCl2+          1.603e-26   1.304e-26   -25.795   -25.885    -0.090     (0)  
   FeCl3           1.546e-29   1.568e-29   -28.811   -28.805     0.006     (0)  
Fe(2)         8.190e-08
   Fe+2            5.721e-08   2.623e-08    -7.243    -7.581    -0.339    -21.59
   FeSO4           2.240e-08   2.272e-08    -7.650    -7.644     0.006     18.97
   FeHCO3+         8.223e-10   6.659e-10    -9.085    -9.177    -0.092     (0)  
   FeOH+           5.408e-10   4.400e-10    -9.267    -9.357    -0.090     (0)  
   FeCl+           5.375e-10   4.352e-10    -9.270    -9.361    -0.092     (0)  
   FeCO3           3.923e-10   3.978e-10    -9.406    -9.400     0.006     (0)  
   Fe(OH)2         1.959e-13   1.987e-13   -12.708   -12.702     0.006     (0)  
   FeHSO4+         3.472e-15   2.812e-15   -14.459   -14.551    -0.092     (0)  
   Fe(OH)3-        4.812e-16   3.916e-16   -15.318   -15.407    -0.090     (0)  
   Fe(HS)2         1.449e-18   1.470e-18   -17.839   -17.833     0.006     (0)  
   Fe(HS)3-        4.956e-26   4.013e-26   -25.305   -25.396    -0.092     (0)  
Fe(3)         3.369e-14
   Fe(OH)3         2.713e-14   2.752e-14   -13.567   -13.560     0.006     (0)  
   Fe(OH)2+        4.925e-15   4.026e-15   -14.308   -14.395    -0.088     (0)  
   Fe(OH)4-        1.628e-15   1.331e-15   -14.788   -14.876    -0.088     (0)  
   FeOH+2          5.229e-19   2.292e-19   -18.282   -18.640    -0.358     (0)  
   FeSO4+          4.392e-23   3.574e-23   -22.357   -22.447    -0.090     (0)  
   Fe(SO4)2-       4.702e-24   3.807e-24   -23.328   -23.419    -0.092     (0)  
   Fe+3            3.023e-24   6.692e-25   -23.520   -24.174    -0.655     (0)  
   FeCl+2          5.542e-25   2.429e-25   -24.256   -24.615    -0.358     (0)  
   FeCl2+          1.603e-26   1.304e-26   -25.795   -25.885    -0.090     (0)  
   FeCl3           1.546e-29   1.568e-29   -28.811   -28.805     0.006     (0)  
   FeHSO4+2        4.190e-30   1.802e-30   -29.378   -29.744    -0.366     (0)  
   Fe2(OH)2+4      4.133e-35   1.414e-36   -34.384   -35.850    -1.466     (0)  
   Fe3(OH)4+5      0.000e+00   0.000e+00   -45.634   -47.925    -2.290     (0)  
H(0)          6.938e-12
   H2              3.469e-12   3.518e-12   -11.460   -11.454     0.006     28.61
Na            1.500e-02
   Na+             1.464e-02   1.191e-02    -1.834    -1.924    -0.090     -1.18
   NaSO4-          3.557e-04   2.908e-04    -3.449    -3.536    -0.088     15.66
   NaHCO3          1.677e-06   1.701e-06    -5.775    -5.769     0.006      1.80
   NaCO3-          1.732e-07   1.403e-07    -6.761    -6.853    -0.092     -0.55
   NaOH            6.308e-19   6.397e-19   -18.200   -18.194     0.006     (0)  
O(0)          0.000e+00
   O2              0.000e+00   0.000e+00   -69.479   -69.473     0.006     30.40
S(-2)         3.550e-10
   HS-             3.142e-10   2.507e-10    -9.503    -9.601    -0.098     20.81
   H2S             4.071e-11   4.129e-11   -10.390   -10.384     0.006     36.27
   S-2             3.669e-15   1.608e-15   -14.435   -14.794    -0.358     (0)  
   Fe(HS)2         1.449e-18   1.470e-18   -17.839   -17.833     0.006     (0)  
   (H2S)2          8.858e-23   8.983e-23   -22.053   -22.047     0.006     30.09
   Fe(HS)3-        4.956e-26   4.013e-26   -25.305   -25.396    -0.092     (0)  
S(6)          1.600e-02
   SO4-2           1.117e-02   4.870e-03    -1.952    -2.312    -0.361     15.32
   CaSO4           4.473e-03   4.536e-03    -2.349    -2.343     0.006      7.50
   NaSO4-          3.557e-04   2.908e-04    -3.449    -3.536    -0.088     15.66
   FeSO4           2.240e-08   2.272e-08    -7.650    -7.644     0.006     18.97
   HSO4-           1.101e-08   8.917e-09    -7.958    -8.050    -0.092     40.47
   CaHSO4+         6.934e-10   5.615e-10    -9.159    -9.251    -0.092     (0)  
   FeHSO4+         3.472e-15   2.812e-15   -14.459   -14.551    -0.092     (0)  
   FeSO4+          4.392e-23   3.574e-23   -22.357   -22.447    -0.090     (0)  
   Fe(SO4)2-       4.702e-24   3.807e-24   -23.328   -23.419    -0.092     (0)  
   FeHSO4+2        4.190e-30   1.802e-30   -29.378   -29.744    -0.366     (0)  

------------------------------Saturation indices-------------------------------

  Phase               SI** log IAP   log K(298 K,   1 atm)

  Anhydrite        -0.32     -4.59   -4.28  CaSO4
  Aragonite        -0.14     -8.48   -8.34  CaCO3
  Calcite           0.00     -8.48   -8.48  CaCO3
  CH4(g)          -10.99    -13.79   -2.80  CH4
  CO2(g)           -3.50     -4.97   -1.47  CO2	 Pressure   0.0 atm, phi 1.000
  Fe(OH)3(a)       -5.89     -1.00    4.89  Fe(OH)3
  FeS(ppt)         -5.54     -9.46   -3.92  FeS
  Goethite          0.00     -1.00   -1.00  FeOOH
  Gypsum           -0.01     -4.59   -4.58  CaSO4:2H2O
  H2(g)            -8.35    -11.45   -3.10  H2
  H2O(g)           -1.50     -0.00    1.50  H2O
  H2S(g)           -9.39    -17.33   -7.94  H2S
  Halite           -5.41     -3.84    1.57  NaCl
  Hematite          2.01     -2.00   -4.01  Fe2O3
  Mackinawite      -4.81     -9.46   -4.65  FeS
  Melanterite      -7.69     -9.90   -2.21  FeSO4:7H2O
  O2(g)           -66.58    -69.47   -2.89  O2
  Pyrite            0.00    -18.48  -18.48  FeS2
  Siderite         -2.89    -13.78  -10.89  FeCO3
  Sulfur           -6.96     -2.08    4.88  S

**For a gas, SI = log10(fugacity). Fugacity = pressure * phi / 1 atm.
  For ideal gases, phi = 1.

Reaction step 6.

Using solution 1.	PURE WATER
Using pure phase assemblage 1.	
Using reaction 1.	

Reaction 1.	

	  5.000e-02 moles of the following reaction have been added:

	                 Relative
	Reactant            moles

	NaCl                 0.50000
	O2                   1.00000

	                 Relative
	Element             moles
	Cl                   0.50000
	Na                   0.50000
	O                    2.00000

-------------------------------Phase assemblage--------------------------------

                                                      Moles in assemblage
Phase               SI  log IAP  log K(T, P)   Initial       Final       Delta

CO2(g)           -3.50    -4.97     -1.47    1.000e+01   1.003e+01   2.649e-02
Calcite           0.00    -8.48     -8.48    1.000e+01   9.973e+00  -2.684e-02
Goethite          0.00    -1.00     -1.00    1.000e+01   1.001e+01   1.333e-02
Gypsum            0.00    -4.58     -4.58    0.000e+00   9.591e-03   9.591e-03
Pyrite           -0.00   -18.48    -18.48    1.000e+01   9.987e+00  -1.333e-02

-----------------------------Solution composition------------------------------

	Elements           Molality       Moles

	C                 3.527e-04   3.525e-04
	Ca                1.726e-02   1.725e-02
	Cl                2.501e-02   2.500e-02
	Fe                8.724e-08   8.720e-08
	Na                2.501e-02   2.500e-02
	S                 1.708e-02   1.708e-02

----------------------------Description of solution----------------------------

                                       pH  =   7.720      Charge balance
                                       pe  =  -3.566      Adjusted to redox equilibrium
      Specific Conductance (µS/cm,  25°C)  = 5259
                          Density (g/cmł)  =   1.00041
                               Volume (L)  =   1.00294
                        Activity of water  =   0.999
                 Ionic strength (mol/kgw)  =   7.428e-02
                       Mass of water (kg)  =   9.995e-01
                 Total alkalinity (eq/kg)  =   3.500e-04
                       Total CO2 (mol/kg)  =   3.527e-04
                         Temperature (°C)  =  25.00
                  Electrical balance (eq)  =  -1.165e-09
 Percent error, 100*(Cat-|An|)/(Cat+|An|)  =  -0.00
                               Iterations  =  25
                                  Total H  = 1.109607e+02
                                  Total O  = 5.554955e+01

----------------------------Distribution of species----------------------------

                                               Log       Log       Log    mole V
   Species          Molality    Activity  Molality  Activity     Gamma    cmł/mol

   OH-             6.764e-07   5.301e-07    -6.170    -6.276    -0.106     -3.80
   H+              2.277e-08   1.907e-08    -7.643    -7.720    -0.077      0.00
   H2O             5.551e+01   9.986e-01     1.744    -0.001     0.000     18.07
C(-4)         1.539e-14
   CH4             1.539e-14   1.566e-14   -13.813   -13.805     0.007     35.46
C(4)          3.527e-04
   HCO3-           3.110e-04   2.506e-04    -3.507    -3.601    -0.094     25.08
   CaHCO3+         2.116e-05   1.718e-05    -4.675    -4.765    -0.090      9.82
   CO2             1.058e-05   1.076e-05    -4.976    -4.968     0.007     34.43
   CaCO3           5.469e-06   5.563e-06    -5.262    -5.255     0.007    -14.60
   NaHCO3          2.714e-06   2.760e-06    -5.566    -5.559     0.007      1.80
   CO3-2           1.461e-06   6.164e-07    -5.835    -6.210    -0.375     -4.33
   NaCO3-          2.816e-07   2.248e-07    -6.550    -6.648    -0.098     -0.46
   FeHCO3+         8.418e-10   6.719e-10    -9.075    -9.173    -0.098     (0)  
   FeCO3           3.897e-10   3.964e-10    -9.409    -9.402     0.007     (0)  
   (CO2)2          2.089e-12   2.125e-12   -11.680   -11.673     0.007     68.87
Ca            1.726e-02
   Ca+2            1.265e-02   5.372e-03    -1.898    -2.270    -0.372    -17.52
   CaSO4           4.585e-03   4.664e-03    -2.339    -2.331     0.007      7.50
   CaHCO3+         2.116e-05   1.718e-05    -4.675    -4.765    -0.090      9.82
   CaCO3           5.469e-06   5.563e-06    -5.262    -5.255     0.007    -14.60
   CaOH+           5.849e-08   4.669e-08    -7.233    -7.331    -0.098     (0)  
   CaHSO4+         7.324e-10   5.846e-10    -9.135    -9.233    -0.098     (0)  
Cl            2.501e-02
   Cl-             2.501e-02   1.970e-02    -1.602    -1.706    -0.104     18.30
   FeCl+           9.133e-10   7.290e-10    -9.039    -9.137    -0.098     (0)  
   FeCl+2          1.002e-24   4.137e-25   -23.999   -24.383    -0.384     (0)  
   FeCl2+          4.541e-26   3.640e-26   -25.343   -25.439    -0.096     (0)  
   FeCl3           7.050e-29   7.172e-29   -28.152   -28.144     0.007     (0)  
Fe(2)         8.724e-08
   Fe+2            6.166e-08   2.681e-08    -7.210    -7.572    -0.362    -21.54
   FeSO4           2.288e-08   2.328e-08    -7.641    -7.633     0.007     18.97
   FeCl+           9.133e-10   7.290e-10    -9.039    -9.137    -0.098     (0)  
   FeHCO3+         8.418e-10   6.719e-10    -9.075    -9.173    -0.098     (0)  
   FeOH+           5.538e-10   4.440e-10    -9.257    -9.353    -0.096     (0)  
   FeCO3           3.897e-10   3.964e-10    -9.409    -9.402     0.007     (0)  
   Fe(OH)2         1.945e-13   1.979e-13   -12.711   -12.704     0.007     (0)  
   FeHSO4+         3.655e-15   2.917e-15   -14.437   -14.535    -0.098     (0)  
   Fe(OH)3-        4.803e-16   3.851e-16   -15.318   -15.414    -0.096     (0)  
   Fe(HS)2         1.434e-18   1.458e-18   -17.844   -17.836     0.007     (0)  
   Fe(HS)3-        4.915e-26   3.924e-26   -25.308   -25.406    -0.098     (0)  
Fe(3)         3.373e-14
   Fe(OH)3         2.704e-14   2.751e-14   -13.568   -13.561     0.007     (0)  
   Fe(OH)2+        5.059e-15   4.077e-15   -14.296   -14.390    -0.094     (0)  
   Fe(OH)4-        1.630e-15   1.314e-15   -14.788   -14.881    -0.094     (0)  
   FeOH+2          5.693e-19   2.351e-19   -18.245   -18.629    -0.384     (0)  
   FeSO4+          4.643e-23   3.722e-23   -22.333   -22.429    -0.096     (0)  
   Fe(SO4)2-       4.981e-24   3.976e-24   -23.303   -23.401    -0.098     (0)  
   Fe+3            3.427e-24   6.953e-25   -23.465   -24.158    -0.693     (0)  
   FeCl+2          1.002e-24   4.137e-25   -23.999   -24.383    -0.384     (0)  
   FeCl2+          4.541e-26   3.640e-26   -25.343   -25.439    -0.096     (0)  
   FeCl3           7.050e-29   7.172e-29   -28.152   -28.144     0.007     (0)  
   FeHSO4+2        4.681e-30   1.901e-30   -29.330   -29.721    -0.391     (0)  
   Fe2(OH)2+4      5.475e-35   1.488e-36   -34.262   -35.828    -1.566     (0)  
   Fe3(OH)4+5      0.000e+00   0.000e+00   -45.450   -47.897    -2.447     (0)  
H(0)          6.862e-12
   H2              3.431e-12   3.490e-12   -11.465   -11.457     0.007     28.61
Na            2.501e-02
   Na+             2.441e-02   1.958e-02    -1.612    -1.708    -0.096     -1.15
   NaSO4-          5.946e-04   4.792e-04    -3.226    -3.319    -0.094     15.90
   NaHCO3          2.714e-06   2.760e-06    -5.566    -5.559     0.007      1.80
   NaCO3-          2.816e-07   2.248e-07    -6.550    -6.648    -0.098     -0.46
   NaOH            1.021e-18   1.038e-18   -17.991   -17.984     0.007     (0)  
O(0)          0.000e+00
   O2              0.000e+00   0.000e+00   -69.474   -69.467     0.007     30.40
S(-2)         3.557e-10
   HS-             3.152e-10   2.471e-10    -9.501    -9.607    -0.106     20.83
   H2S             4.049e-11   4.119e-11   -10.393   -10.385     0.007     36.27
   S-2             3.789e-15   1.565e-15   -14.421   -14.806    -0.384     (0)  
   Fe(HS)2         1.434e-18   1.458e-18   -17.844   -17.836     0.007     (0)  
   (H2S)2          8.789e-23   8.941e-23   -22.056   -22.049     0.007     30.09
   Fe(HS)3-        4.915e-26   3.924e-26   -25.308   -25.406    -0.098     (0)  
S(6)          1.708e-02
   SO4-2           1.190e-02   4.882e-03    -1.924    -2.311    -0.387     15.42
   CaSO4           4.585e-03   4.664e-03    -2.339    -2.331     0.007      7.50
   NaSO4-          5.946e-04   4.792e-04    -3.226    -3.319    -0.094     15.90
   FeSO4           2.288e-08   2.328e-08    -7.641    -7.633     0.007     18.97
   HSO4-           1.134e-08   9.052e-09    -7.945    -8.043    -0.098     40.50
   CaHSO4+         7.324e-10   5.846e-10    -9.135    -9.233    -0.098     (0)  
   FeHSO4+         3.655e-15   2.917e-15   -14.437   -14.535    -0.098     (0)  
   FeSO4+          4.643e-23   3.722e-23   -22.333   -22.429    -0.096     (0)  
   Fe(SO4)2-       4.981e-24   3.976e-24   -23.303   -23.401    -0.098     (0)  
   FeHSO4+2        4.681e-30   1.901e-30   -29.330   -29.721    -0.391     (0)  

------------------------------Saturation indices-------------------------------

  Phase               SI** log IAP   log K(298 K,   1 atm)

  Anhydrite        -0.30     -4.58   -4.28  CaSO4
  Aragonite        -0.14     -8.48   -8.34  CaCO3
  Calcite           0.00     -8.48   -8.48  CaCO3
  CH4(g)          -11.00    -13.81   -2.80  CH4
  CO2(g)           -3.50     -4.97   -1.47  CO2	 Pressure   0.0 atm, phi 1.000
  Fe(OH)3(a)       -5.89     -1.00    4.89  Fe(OH)3
  FeS(ppt)         -5.54     -9.46   -3.92  FeS
  Goethite          0.00     -1.00   -1.00  FeOOH
  Gypsum            0.00     -4.58   -4.58  CaSO4:2H2O
  H2(g)            -8.36    -11.46   -3.10  H2
  H2O(g)           -1.50     -0.00    1.50  H2O
  H2S(g)           -9.39    -17.33   -7.94  H2S
  Halite           -4.98     -3.41    1.57  NaCl
  Hematite          2.01     -2.00   -4.01  Fe2O3
  Mackinawite      -4.81     -9.46   -4.65  FeS
  Melanterite      -7.68     -9.89   -2.21  FeSO4:7H2O
  O2(g)           -66.57    -69.47   -2.89  O2
  Pyrite           -0.00    -18.48  -18.48  FeS2
  Siderite         -2.89    -13.78  -10.89  FeCO3
  Sulfur           -6.96     -2.08    4.88  S

**For a gas, SI = log10(fugacity). Fugacity = pressure * phi / 1 atm.
  For ideal gases, phi = 1.

------------------
End of simulation.
------------------

------------------------------------
Reading input data for simulation 2.
------------------------------------

----------------------------------
End of Run after 0.012473 Seconds.
----------------------------------

