   Input file: /Users/vcantarella/wc/phreeqc_in_julia/PhreeqcRM/test/reference_suite/_scripts/../ex22/input.pqi
  Output file: /Users/vcantarella/wc/phreeqc_in_julia/PhreeqcRM/test/reference_suite/_scripts/../ex22/reference/cli.out
Database file: /usr/local/share/doc/phreeqc/database/sit.dat

------------------
Reading data base.
------------------

	SOLUTION_MASTER_SPECIES
	SIT
	SOLUTION_SPECIES
	PHASES
------------------------------------
Reading input data for simulation 1.
------------------------------------

	TITLE Example 22.--Compare experimental CO2 solubilities at high CO2 pressure with
	      Peng-Robinson calc`ns with fixed-volume gas_phase, 25, 50, 75, 100, 150 oC.
	PRINT
	warnings 0
	SOLUTION 1
	GAS_PHASE 1
	    fixed_volume
	    CO2(g) 0
	    H2O(g) 0
	REACTION
	 CO2 1
	 0 31*1
	INCREMENTAL_REACTIONS true
	USER_GRAPH 1 Example 22,
	  -chart_title "CO2 solubility at high pressures, 25 - 100 ÂşC"
	 -plot_csv_file co2.dat
	 -axis_titles "Pressure / atm" "CO2 / (mol/kgw)"
	 -axis_scale x_axis 0 500
	 -axis_scale y_axis 0 2
	 -connect_simulations false
	 10 graph_x PR_P("CO2(g)")
	 20 graph_y TOT("C(4)")
	 -end
	USER_GRAPH 2 Example 22, P-Vm of CO2 gas, 25 - 150 ÂşC
	 -chart_title "P-Vm of CO2 gas, data from Michels et al., 1935, 1937"
	 -plot_csv_file co2_VP.dat
	 -axis_titles "molar volume of CO2 gas / (L/mol)" "CO2 pressure / atm"
	 -axis_scale x_axis 0 0.7
	 -axis_scale y_axis 0 700
	 -connect_simulations false
	 10 graph_x gas_vm : graph_y gas_p
	END
-----
TITLE
-----

 Example 22.--Compare experimental CO2 solubilities at high CO2 pressure with
      Peng-Robinson calc`ns with fixed-volume gas_phase, 25, 50, 75, 100, 150 oC.

-------------------------------------------
Beginning of initial solution calculations.
-------------------------------------------

Initial solution 1.	

-----------------------------Solution composition------------------------------

	Elements           Molality       Moles

	Pure water     

----------------------------Description of solution----------------------------

                                       pH  =   7.000    
                                       pe  =   4.000    
                        Activity of water  =   1.000
                 Ionic strength (mol/kgw)  =   1.000e-07
                       Mass of water (kg)  =   1.000e+00
                 Total alkalinity (eq/kg)  =  -3.823e-12
                         Temperature (°C)  =  25.00
                  Electrical balance (eq)  =   3.823e-12
 Percent error, 100*(Cat-|An|)/(Cat+|An|)  =   0.00
                               Iterations  =   3
                         Gamma iterations  =   2
                      Osmotic coefficient  =   0.99988
                                  Total H  = 1.110198e+02
                                  Total O  = 5.550991e+01

----------------------------Distribution of species----------------------------

                                               Log       Log       Log    mole V
   Species          Molality    Activity  Molality  Activity     Gamma    cmł/mol

   H+              1.000e-07   1.000e-07    -7.000    -7.000    -0.000      0.00
   OH-             1.000e-07   1.000e-07    -7.000    -7.000    -0.000     (0)  
   H2O             5.551e+01   1.000e+00     1.744    -0.000     0.000     18.07
H(0)          1.664e-25
   H2              8.319e-26   8.319e-26   -25.080   -25.080     0.000     (0)  
O(0)          0.000e+00
   O2              0.000e+00   0.000e+00   -41.980   -41.980     0.000     (0)  

------------------------------Saturation indices-------------------------------

  Phase               SI** log IAP   log K(298 K,   1 atm)

  H2(g)           -22.00     20.99   42.99  H2
  H2O(g)           -1.50     -0.00    1.50  H2O
  O2(g)           -39.08    -41.98   -2.90  O2

**For a gas, SI = log10(fugacity). Fugacity = pressure * phi / 1 atm.
  For ideal gases, phi = 1.

-----------------------------------------
Beginning of batch-reaction calculations.
-----------------------------------------

Reaction step 1.

Using solution 1.	
Using gas phase 1.	
Using reaction 1.	

Reaction 1.	

	  0.000e+00 moles of the following reaction have been added:

	                 Relative
	Reactant            moles

	CO2                  1.00000

	                 Relative
	Element             moles
	C                    1.00000
	O                    2.00000

-----------------------------------Gas phase-----------------------------------

Total pressure:  0.03      atmospheres 
    Gas volume:   1.00e+00 liters
  Molar volume:   7.74e+02 liters/mole

                                                        Moles in gas
                                            ----------------------------------
Component                log P           P     Initial       Final       Delta

CO2(g)                  -99.99   0.000e+00   0.000e+00   0.000e+00   0.000e+00
H2O(g)                   -1.50   3.162e-02   0.000e+00   1.292e-03   1.292e-03

-----------------------------Solution composition------------------------------

	Elements           Molality       Moles

	Pure water     

----------------------------Description of solution----------------------------

                                       pH  =   7.000      Charge balance
                                       pe  =  11.583      Adjusted to redox equilibrium
                        Activity of water  =   1.000
                 Ionic strength (mol/kgw)  =   1.000e-07
                       Mass of water (kg)  =   1.000e+00
                 Total alkalinity (eq/kg)  =  -3.823e-12
                         Temperature (°C)  =  25.00
                           Pressure (atm)  =  0.03
                  Electrical balance (eq)  =   3.823e-12
 Percent error, 100*(Cat-|An|)/(Cat+|An|)  =   0.00
                               Iterations  =   8
                         Gamma iterations  =   1
                      Osmotic coefficient  =   0.99988
                                  Total H  = 1.110172e+02
                                  Total O  = 5.550862e+01

----------------------------Distribution of species----------------------------

                                               Log       Log       Log    mole V
   Species          Molality    Activity  Molality  Activity     Gamma    cmł/mol

   H+              1.000e-07   1.000e-07    -7.000    -7.000    -0.000      0.00
   OH-             1.000e-07   1.000e-07    -7.000    -7.000    -0.000     (0)  
   H2O             5.551e+01   1.000e+00     1.744    -0.000     0.000     18.07
H(0)          0.000e+00
   H2              0.000e+00   0.000e+00   -40.246   -40.246     0.000     (0)  
O(0)          4.493e-12
   O2              2.246e-12   2.246e-12   -11.649   -11.649     0.000     (0)  

------------------------------Saturation indices-------------------------------

  Phase               SI** log IAP   log K(298 K,   0 atm)

  H2(g)           -37.17      5.82   42.99  H2
  H2O(g)           -1.50     -0.00    1.50  H2O
  O2(g)            -8.75    -11.65   -2.90  O2

**For a gas, SI = log10(fugacity). Fugacity = pressure * phi / 1 atm.
  For ideal gases, phi = 1.

Reaction step 2.

Using solution 1.	
Using gas phase 1.	
Using reaction 1.	

Reaction 1.	

	  1.000e+00 moles of the following reaction have been added:

	                 Relative
	Reactant            moles

	CO2                  1.00000

	                 Relative
	Element             moles
	C                    1.00000
	O                    2.00000

-----------------------------------Gas phase-----------------------------------

Total pressure: 13.40      atmospheres 
    Gas volume:   1.00e+00 liters
  Molar volume:   1.83e+00 liters/mole

                                                        Moles in gas
                                            ----------------------------------
Component                log P           P     Initial       Final       Delta

CO2(g)                    1.13   1.337e+01   0.000e+00   5.465e-01   5.465e-01
H2O(g)                   -1.50   3.165e-02   1.292e-03   1.294e-03   1.264e-06

-----------------------------Solution composition------------------------------

	Elements           Molality       Moles

	C                 4.535e-01   4.535e-01

----------------------------Description of solution----------------------------

                                       pH  =   3.347      Charge balance
                                       pe  =  15.236      Adjusted to redox equilibrium
                        Activity of water  =   0.992
                 Ionic strength (mol/kgw)  =   4.612e-04
                       Mass of water (kg)  =   1.000e+00
                 Total alkalinity (eq/kg)  =  -3.823e-12
                       Total CO2 (mol/kg)  =   4.535e-01
                         Temperature (°C)  =  25.00
                           Pressure (atm)  = 13.40
                  Electrical balance (eq)  =   3.823e-12
 Percent error, 100*(Cat-|An|)/(Cat+|An|)  =   0.00
                               Iterations  =  21
                         Gamma iterations  =   3
                      Osmotic coefficient  =   0.99998
                                  Total H  = 1.110172e+02
                                  Total O  = 5.641556e+01

----------------------------Distribution of species----------------------------

                                               Log       Log       Log    mole V
   Species          Molality    Activity  Molality  Activity     Gamma    cmł/mol

   H+              4.612e-04   4.501e-04    -3.336    -3.347    -0.011      0.00
   OH-             2.279e-11   2.224e-11   -10.642   -10.653    -0.011     (0)  
   H2O             5.551e+01   9.919e-01     1.744    -0.004     0.000     18.06
C(-4)         0.000e+00
   CH4             0.000e+00   0.000e+00  -127.494  -127.494     0.000     (0)  
C(4)          4.535e-01
   CO2             4.530e-01   4.530e-01    -0.344    -0.344     0.000     (0)  
   HCO3-           4.612e-04   4.501e-04    -3.336    -3.347    -0.011     (0)  
   CO3-2           5.157e-11   4.677e-11   -10.288   -10.330    -0.042     (0)  
   CO              0.000e+00   0.000e+00   -42.589   -42.589     0.000     (0)  
H(0)          0.000e+00
   H2              0.000e+00   0.000e+00   -40.245   -40.245     0.000     (0)  
O(0)          4.484e-12
   O2              2.242e-12   2.242e-12   -11.649   -11.649     0.000     (0)  
   CO              0.000e+00   0.000e+00   -42.589   -42.589     0.000     (0)  

------------------------------Saturation indices-------------------------------

  Phase               SI** log IAP   log K(298 K,  13 atm)

  C(cr)           -59.20     -5.37   53.83  C
  CH4(g)         -124.63      6.27  130.91  CH4
  CO(g)           -39.55    -11.20   28.35  CO
  CO2(g)            1.13    -17.02  -18.15  CO2
  H2(g)           -37.16      5.82   42.99  H2
  H2O(g)           -1.50     -0.00    1.50  H2O
  O2(g)            -8.75    -11.65   -2.90  O2

**For a gas, SI = log10(fugacity). Fugacity = pressure * phi / 1 atm.
  For ideal gases, phi = 1.

Reaction step 3.

Using solution 1.	
Using gas phase 1.	
Using reaction 1.	

Reaction 1.	

	  1.000e+00 moles of the following reaction have been added:

	                 Relative
	Reactant            moles

	CO2                  1.00000

	                 Relative
	Element             moles
	C                    1.00000
	O                    2.00000

-----------------------------------Gas phase-----------------------------------

Total pressure: 26.78      atmospheres 
    Gas volume:   1.00e+00 liters
  Molar volume:   9.14e-01 liters/mole

                                                        Moles in gas
                                            ----------------------------------
Component                log P           P     Initial       Final       Delta

CO2(g)                    1.43   2.675e+01   5.465e-01   1.093e+00   5.467e-01
H2O(g)                   -1.50   3.171e-02   1.294e-03   1.296e-03   2.189e-06

-----------------------------Solution composition------------------------------

	Elements           Molality       Moles

	C                 9.068e-01   9.068e-01

----------------------------Description of solution----------------------------

                                       pH  =   3.196      Charge balance
                                       pe  =  15.386      Adjusted to redox equilibrium
                        Activity of water  =   0.984
                 Ionic strength (mol/kgw)  =   6.558e-04
                       Mass of water (kg)  =   1.000e+00
                 Total alkalinity (eq/kg)  =  -3.823e-12
                       Total CO2 (mol/kg)  =   9.068e-01
                         Temperature (°C)  =  25.00
                           Pressure (atm)  = 26.78
                  Electrical balance (eq)  =   3.823e-12
 Percent error, 100*(Cat-|An|)/(Cat+|An|)  =   0.00
                               Iterations  =  17
                         Gamma iterations  =   3
                      Osmotic coefficient  =   0.99999
                                  Total H  = 1.110172e+02
                                  Total O  = 5.732219e+01

----------------------------Distribution of species----------------------------

                                               Log       Log       Log    mole V
   Species          Molality    Activity  Molality  Activity     Gamma    cmł/mol

   H+              6.558e-04   6.371e-04    -3.183    -3.196    -0.013      0.00
   OH-             1.620e-11   1.574e-11   -10.790   -10.803    -0.013     (0)  
   H2O             5.551e+01   9.838e-01     1.744    -0.007     0.000     18.05
C(-4)         0.000e+00
   CH4             0.000e+00   0.000e+00  -127.190  -127.190     0.000     (0)  
C(4)          9.068e-01
   CO2             9.062e-01   9.062e-01    -0.043    -0.043     0.000     (0)  
   HCO3-           6.558e-04   6.371e-04    -3.183    -3.196    -0.013     (0)  
   CO3-2           5.251e-11   4.677e-11   -10.280   -10.330    -0.050     (0)  
   CO              0.000e+00   0.000e+00   -42.288   -42.288     0.000     (0)  
H(0)          0.000e+00
   H2              0.000e+00   0.000e+00   -40.244   -40.244     0.000     (0)  
O(0)          4.477e-12
   O2              2.238e-12   2.238e-12   -11.650   -11.650     0.000     (0)  
   CO              0.000e+00   0.000e+00   -42.288   -42.288     0.000     (0)  

------------------------------Saturation indices-------------------------------

  Phase               SI** log IAP   log K(298 K,  27 atm)

  C(cr)           -58.90     -5.06   53.84  C
  CH4(g)         -124.33      6.57  130.90  CH4
  CO(g)           -39.25    -10.89   28.36  CO
  CO2(g)            1.43    -16.71  -18.14  CO2
  H2(g)           -37.16      5.82   42.98  H2
  H2O(g)           -1.50     -0.01    1.49  H2O
  O2(g)            -8.75    -11.65   -2.90  O2

**For a gas, SI = log10(fugacity). Fugacity = pressure * phi / 1 atm.
  For ideal gases, phi = 1.

Reaction step 4.

Using solution 1.	
Using gas phase 1.	
Using reaction 1.	

Reaction 1.	

	  1.000e+00 moles of the following reaction have been added:

	                 Relative
	Reactant            moles

	CO2                  1.00000

	                 Relative
	Element             moles
	C                    1.00000
	O                    2.00000

-----------------------------------Gas phase-----------------------------------

Total pressure: 40.15      atmospheres 
    Gas volume:   1.00e+00 liters
  Molar volume:   6.09e-01 liters/mole

                                                        Moles in gas
                                            ----------------------------------
Component                log P           P     Initial       Final       Delta

CO2(g)                    1.60   4.012e+01   1.093e+00   1.640e+00   5.467e-01
H2O(g)                   -1.50   3.176e-02   1.296e-03   1.298e-03   2.180e-06

-----------------------------Solution composition------------------------------

	Elements           Molality       Moles

	C                 1.360e+00   1.360e+00

----------------------------Description of solution----------------------------

                                       pH  =   3.107      Charge balance
                                       pe  =  15.474      Adjusted to redox equilibrium
                        Activity of water  =   0.976
                 Ionic strength (mol/kgw)  =   8.063e-04
                       Mass of water (kg)  =   1.000e+00
                 Total alkalinity (eq/kg)  =  -3.823e-12
                       Total CO2 (mol/kg)  =   1.360e+00
                         Temperature (°C)  =  25.00
                           Pressure (atm)  = 40.15
                  Electrical balance (eq)  =   3.823e-12
 Percent error, 100*(Cat-|An|)/(Cat+|An|)  =   0.00
                               Iterations  =  18
                         Gamma iterations  =   3
                      Osmotic coefficient  =   0.99999
                                  Total H  = 1.110172e+02
                                  Total O  = 5.822878e+01

----------------------------Distribution of species----------------------------

                                               Log       Log       Log    mole V
   Species          Molality    Activity  Molality  Activity     Gamma    cmł/mol

   H+              8.063e-04   7.809e-04    -3.094    -3.107    -0.014      0.00
   OH-             1.328e-11   1.286e-11   -10.877   -10.891    -0.014     (0)  
   H2O             5.551e+01   9.758e-01     1.744    -0.011     0.000     18.04
C(-4)         0.000e+00
   CH4             0.000e+00   0.000e+00  -127.011  -127.011     0.000     (0)  
C(4)          1.360e+00
   CO2             1.359e+00   1.359e+00     0.133     0.133     0.000     (0)  
   HCO3-           8.063e-04   7.809e-04    -3.094    -3.107    -0.014     (0)  
   CO3-2           5.314e-11   4.677e-11   -10.275   -10.330    -0.055     (0)  
   CO              0.000e+00   0.000e+00   -42.111   -42.111     0.000     (0)  
H(0)          0.000e+00
   H2              0.000e+00   0.000e+00   -40.243   -40.243     0.000     (0)  
O(0)          4.469e-12
   O2              2.235e-12   2.235e-12   -11.651   -11.651     0.000     (0)  
   CO              0.000e+00   0.000e+00   -42.111   -42.111     0.000     (0)  

------------------------------Saturation indices-------------------------------

  Phase               SI** log IAP   log K(298 K,  40 atm)

  C(cr)           -58.73     -4.88   53.84  C
  CH4(g)         -124.15      6.75  130.90  CH4
  CO(g)           -39.07    -10.71   28.36  CO
  CO2(g)            1.60    -16.53  -18.14  CO2
  H2(g)           -37.16      5.81   42.98  H2
  H2O(g)           -1.50     -0.01    1.49  H2O
  O2(g)            -8.75    -11.65   -2.90  O2

**For a gas, SI = log10(fugacity). Fugacity = pressure * phi / 1 atm.
  For ideal gases, phi = 1.

Reaction step 5.

Using solution 1.	
Using gas phase 1.	
Using reaction 1.	

Reaction 1.	

	  1.000e+00 moles of the following reaction have been added:

	                 Relative
	Reactant            moles

	CO2                  1.00000

	                 Relative
	Element             moles
	C                    1.00000
	O                    2.00000

-----------------------------------Gas phase-----------------------------------

Total pressure: 53.53      atmospheres 
    Gas volume:   1.00e+00 liters
  Molar volume:   4.57e-01 liters/mole

                                                        Moles in gas
                                            ----------------------------------
Component                log P           P     Initial       Final       Delta

CO2(g)                    1.73   5.350e+01   1.640e+00   2.187e+00   5.467e-01
H2O(g)                   -1.50   3.181e-02   1.298e-03   1.300e-03   2.169e-06

-----------------------------Solution composition------------------------------

	Elements           Molality       Moles

	C                 1.813e+00   1.813e+00

----------------------------Description of solution----------------------------

                                       pH  =   3.045      Charge balance
                                       pe  =  15.536      Adjusted to redox equilibrium
                        Activity of water  =   0.968
                 Ionic strength (mol/kgw)  =   9.339e-04
                       Mass of water (kg)  =   1.000e+00
                 Total alkalinity (eq/kg)  =  -3.823e-12
                       Total CO2 (mol/kg)  =   1.813e+00
                         Temperature (°C)  =  25.00
                           Pressure (atm)  = 53.53
                  Electrical balance (eq)  =   3.823e-12
 Percent error, 100*(Cat-|An|)/(Cat+|An|)  =   0.00
                               Iterations  =  21
                         Gamma iterations  =   3
                      Osmotic coefficient  =   0.99999
                                  Total H  = 1.110172e+02
                                  Total O  = 5.913534e+01

----------------------------Distribution of species----------------------------

                                               Log       Log       Log    mole V
   Species          Molality    Activity  Molality  Activity     Gamma    cmł/mol

   H+              9.339e-04   9.025e-04    -3.030    -3.045    -0.015      0.00
   OH-             1.153e-11   1.115e-11   -10.938   -10.953    -0.015     (0)  
   H2O             5.551e+01   9.678e-01     1.744    -0.014     0.000     18.03
C(-4)         0.000e+00
   CH4             0.000e+00   0.000e+00  -126.885  -126.885     0.000     (0)  
C(4)          1.813e+00
   CO2             1.813e+00   1.813e+00     0.258     0.258     0.000     (0)  
   HCO3-           9.339e-04   9.025e-04    -3.030    -3.045    -0.015     (0)  
   CO3-2           5.364e-11   4.677e-11   -10.271   -10.330    -0.059     (0)  
   CO              0.000e+00   0.000e+00   -41.986   -41.986     0.000     (0)  
H(0)          0.000e+00
   H2              0.000e+00   0.000e+00   -40.242   -40.242     0.000     (0)  
O(0)          4.469e-12
   O2              2.235e-12   2.235e-12   -11.651   -11.651     0.000     (0)  
   CO              0.000e+00   0.000e+00   -41.986   -41.986     0.000     (0)  

------------------------------Saturation indices-------------------------------

  Phase               SI** log IAP   log K(298 K,  54 atm)

  C(cr)           -58.60     -4.75   53.85  C
  CH4(g)         -124.02      6.87  130.89  CH4
  CO(g)           -38.95    -10.58   28.37  CO
  CO2(g)            1.73    -16.40  -18.13  CO2
  H2(g)           -37.16      5.81   42.97  H2
  H2O(g)           -1.50     -0.01    1.48  H2O
  O2(g)            -8.75    -11.65   -2.90  O2

**For a gas, SI = log10(fugacity). Fugacity = pressure * phi / 1 atm.
  For ideal gases, phi = 1.

Reaction step 6.

Using solution 1.	
Using gas phase 1.	
Using reaction 1.	

Reaction 1.	

	  1.000e+00 moles of the following reaction have been added:

	                 Relative
	Reactant            moles

	CO2                  1.00000

	                 Relative
	Element             moles
	C                    1.00000
	O                    2.00000

-----------------------------------Gas phase-----------------------------------

Total pressure: 66.91      atmospheres 
    Gas volume:   1.00e+00 liters
  Molar volume:   3.66e-01 liters/mole

                                                        Moles in gas
                                            ----------------------------------
Component                log P           P     Initial       Final       Delta

CO2(g)                    1.83   6.687e+01   2.187e+00   2.733e+00   5.467e-01
H2O(g)                   -1.50   3.187e-02   1.300e-03   1.302e-03   2.158e-06

-----------------------------Solution composition------------------------------

	Elements           Molality       Moles

	C                 2.267e+00   2.267e+00

----------------------------Description of solution----------------------------

                                       pH  =   2.996      Charge balance
                                       pe  =  15.585      Adjusted to redox equilibrium
                        Activity of water  =   0.960
                 Ionic strength (mol/kgw)  =   1.047e-03
                       Mass of water (kg)  =   1.000e+00
                 Total alkalinity (eq/kg)  =  -3.823e-12
                       Total CO2 (mol/kg)  =   2.267e+00
                         Temperature (°C)  =  25.00
                           Pressure (atm)  = 66.91
                  Electrical balance (eq)  =   3.823e-12
 Percent error, 100*(Cat-|An|)/(Cat+|An|)  =   0.00
                               Iterations  =  22
                         Gamma iterations  =   3
                      Osmotic coefficient  =   0.99999
                                  Total H  = 1.110172e+02
                                  Total O  = 6.004188e+01

----------------------------Distribution of species----------------------------

                                               Log       Log       Log    mole V
   Species          Molality    Activity  Molality  Activity     Gamma    cmł/mol

   H+              1.047e-03   1.010e-03    -2.980    -2.996    -0.016      0.00
   OH-             1.035e-11   9.978e-12   -10.985   -11.001    -0.016     (0)  
   H2O             5.551e+01   9.600e-01     1.744    -0.018     0.000     18.02
C(-4)         0.000e+00
   CH4             0.000e+00   0.000e+00  -126.786  -126.786     0.000     (0)  
C(4)          2.267e+00
   CO2             2.266e+00   2.266e+00     0.355     0.355     0.000     (0)  
   HCO3-           1.047e-03   1.010e-03    -2.980    -2.996    -0.016     (0)  
   CO3-2           5.405e-11   4.677e-11   -10.267   -10.330    -0.063     (0)  
   CO              0.000e+00   0.000e+00   -41.889   -41.889     0.000     (0)  
H(0)          0.000e+00
   H2              0.000e+00   0.000e+00   -40.241   -40.241     0.000     (0)  
O(0)          4.466e-12
   O2              2.233e-12   2.233e-12   -11.651   -11.651     0.000     (0)  
   CO              0.000e+00   0.000e+00   -41.889   -41.889     0.000     (0)  

------------------------------Saturation indices-------------------------------

  Phase               SI** log IAP   log K(298 K,  67 atm)

  C(cr)           -58.50     -4.65   53.85  C
  CH4(g)         -123.93      6.96  130.89  CH4
  CO(g)           -38.85    -10.48   28.37  CO
  CO2(g)            1.83    -16.30  -18.13  CO2
  H2(g)           -37.16      5.81   42.97  H2
  H2O(g)           -1.50     -0.02    1.48  H2O
  O2(g)            -8.75    -11.65   -2.90  O2

**For a gas, SI = log10(fugacity). Fugacity = pressure * phi / 1 atm.
  For ideal gases, phi = 1.

Reaction step 7.

Using solution 1.	
Using gas phase 1.	
Using reaction 1.	

Reaction 1.	

	  1.000e+00 moles of the following reaction have been added:

	                 Relative
	Reactant            moles

	CO2                  1.00000

	                 Relative
	Element             moles
	C                    1.00000
	O                    2.00000

-----------------------------------Gas phase-----------------------------------

Total pressure: 80.28      atmospheres 
    Gas volume:   1.00e+00 liters
  Molar volume:   3.05e-01 liters/mole

                                                        Moles in gas
                                            ----------------------------------
Component                log P           P     Initial       Final       Delta

CO2(g)                    1.90   8.025e+01   2.733e+00   3.280e+00   5.467e-01
H2O(g)                   -1.50   3.192e-02   1.302e-03   1.305e-03   2.147e-06

-----------------------------Solution composition------------------------------

	Elements           Molality       Moles

	C                 2.720e+00   2.720e+00

----------------------------Description of solution----------------------------

                                       pH  =   2.956      Charge balance
                                       pe  =  15.624      Adjusted to redox equilibrium
                        Activity of water  =   0.952
                 Ionic strength (mol/kgw)  =   1.150e-03
                       Mass of water (kg)  =   1.000e+00
                 Total alkalinity (eq/kg)  =  -3.823e-12
                       Total CO2 (mol/kg)  =   2.720e+00
                         Temperature (°C)  =  25.00
                           Pressure (atm)  = 80.28
                  Electrical balance (eq)  =   3.823e-12
 Percent error, 100*(Cat-|An|)/(Cat+|An|)  =   0.00
                               Iterations  =  25
                         Gamma iterations  =   3
                      Osmotic coefficient  =   0.99999
                                  Total H  = 1.110172e+02
                                  Total O  = 6.094841e+01

----------------------------Distribution of species----------------------------

                                               Log       Log       Log    mole V
   Species          Molality    Activity  Molality  Activity     Gamma    cmł/mol

   H+              1.150e-03   1.107e-03    -2.939    -2.956    -0.016      0.00
   OH-             9.467e-12   9.116e-12   -11.024   -11.040    -0.016     (0)  
   H2O             5.551e+01   9.522e-01     1.744    -0.021     0.000     18.01
C(-4)         0.000e+00
   CH4             0.000e+00   0.000e+00  -126.706  -126.706     0.000     (0)  
C(4)          2.720e+00
   CO2             2.719e+00   2.719e+00     0.434     0.434     0.000     (0)  
   HCO3-           1.150e-03   1.107e-03    -2.939    -2.956    -0.016     (0)  
   CO3-2           5.440e-11   4.677e-11   -10.264   -10.330    -0.066     (0)  
   CO              0.000e+00   0.000e+00   -41.810   -41.810     0.000     (0)  
H(0)          0.000e+00
   H2              0.000e+00   0.000e+00   -40.240   -40.240     0.000     (0)  
O(0)          4.470e-12
   O2              2.235e-12   2.235e-12   -11.651   -11.651     0.000     (0)  
   CO              0.000e+00   0.000e+00   -41.810   -41.810     0.000     (0)  

------------------------------Saturation indices-------------------------------

  Phase               SI** log IAP   log K(298 K,  80 atm)

  C(cr)           -58.42     -4.57   53.86  C
  CH4(g)         -123.85      7.04  130.88  CH4
  CO(g)           -38.77    -10.39   28.38  CO
  CO2(g)            1.90    -16.22  -18.12  CO2
  H2(g)           -37.16      5.80   42.96  H2
  H2O(g)           -1.50     -0.02    1.47  H2O
  O2(g)            -8.75    -11.65   -2.90  O2

**For a gas, SI = log10(fugacity). Fugacity = pressure * phi / 1 atm.
  For ideal gases, phi = 1.

Reaction step 8.

Using solution 1.	
Using gas phase 1.	
Using reaction 1.	

Reaction 1.	

	  1.000e+00 moles of the following reaction have been added:

	                 Relative
	Reactant            moles

	CO2                  1.00000

	                 Relative
	Element             moles
	C                    1.00000
	O                    2.00000

-----------------------------------Gas phase-----------------------------------

Total pressure: 93.66      atmospheres 
    Gas volume:   1.00e+00 liters
  Molar volume:   2.61e-01 liters/mole

                                                        Moles in gas
                                            ----------------------------------
Component                log P           P     Initial       Final       Delta

CO2(g)                    1.97   9.363e+01   3.280e+00   3.827e+00   5.467e-01
H2O(g)                   -1.50   3.197e-02   1.305e-03   1.307e-03   2.136e-06

-----------------------------Solution composition------------------------------

	Elements           Molality       Moles

	C                 3.173e+00   3.173e+00

----------------------------Description of solution----------------------------

                                       pH  =   2.922      Charge balance
                                       pe  =  15.658      Adjusted to redox equilibrium
                        Activity of water  =   0.944
                 Ionic strength (mol/kgw)  =   1.245e-03
                       Mass of water (kg)  =   1.000e+00
                 Total alkalinity (eq/kg)  =  -3.823e-12
                       Total CO2 (mol/kg)  =   3.173e+00
                         Temperature (°C)  =  25.00
                           Pressure (atm)  = 93.66
                  Electrical balance (eq)  =   3.823e-12
 Percent error, 100*(Cat-|An|)/(Cat+|An|)  =   0.00
                               Iterations  =  26
                         Gamma iterations  =   3
                      Osmotic coefficient  =   0.99999
                                  Total H  = 1.110172e+02
                                  Total O  = 6.185493e+01

----------------------------Distribution of species----------------------------

                                               Log       Log       Log    mole V
   Species          Molality    Activity  Molality  Activity     Gamma    cmł/mol

   H+              1.245e-03   1.197e-03    -2.905    -2.922    -0.017      0.00
   OH-             8.784e-12   8.447e-12   -11.056   -11.073    -0.017     (0)  
   H2O             5.551e+01   9.444e-01     1.744    -0.025     0.000     17.99
C(-4)         0.000e+00
   CH4             0.000e+00   0.000e+00  -126.636  -126.636     0.000     (0)  
C(4)          3.173e+00
   CO2             3.172e+00   3.172e+00     0.501     0.501     0.000     (0)  
   HCO3-           1.245e-03   1.197e-03    -2.905    -2.922    -0.017     (0)  
   CO3-2           5.471e-11   4.677e-11   -10.262   -10.330    -0.068     (0)  
   CO              0.000e+00   0.000e+00   -41.743   -41.743     0.000     (0)  
H(0)          0.000e+00
   H2              0.000e+00   0.000e+00   -40.239   -40.239     0.000     (0)  
O(0)          4.461e-12
   O2              2.231e-12   2.231e-12   -11.652   -11.652     0.000     (0)  
   CO              0.000e+00   0.000e+00   -41.743   -41.743     0.000     (0)  

------------------------------Saturation indices-------------------------------

  Phase               SI** log IAP   log K(298 K,  94 atm)

  C(cr)           -58.36     -4.50   53.86  C
  CH4(g)         -123.78      7.10  130.88  CH4
  CO(g)           -38.70    -10.32   28.38  CO
  CO2(g)            1.97    -16.15  -18.12  CO2
  H2(g)           -37.16      5.80   42.96  H2
  H2O(g)           -1.50     -0.02    1.47  H2O
  O2(g)            -8.75    -11.65   -2.90  O2

**For a gas, SI = log10(fugacity). Fugacity = pressure * phi / 1 atm.
  For ideal gases, phi = 1.

Reaction step 9.

Using solution 1.	
Using gas phase 1.	
Using reaction 1.	

Reaction 1.	

	  1.000e+00 moles of the following reaction have been added:

	                 Relative
	Reactant            moles

	CO2                  1.00000

	                 Relative
	Element             moles
	C                    1.00000
	O                    2.00000

-----------------------------------Gas phase-----------------------------------

Total pressure: 107.04      atmospheres 
    Gas volume:   1.00e+00 liters
  Molar volume:   2.29e-01 liters/mole

                                                        Moles in gas
                                            ----------------------------------
Component                log P           P     Initial       Final       Delta

CO2(g)                    2.03   1.070e+02   3.827e+00   4.374e+00   5.467e-01
H2O(g)                   -1.49   3.202e-02   1.307e-03   1.309e-03   2.124e-06

-----------------------------Solution composition------------------------------

	Elements           Molality       Moles

	C                 3.627e+00   3.626e+00

----------------------------Description of solution----------------------------

                                       pH  =   2.893      Charge balance
                                       pe  =  15.687      Adjusted to redox equilibrium
                        Activity of water  =   0.937
                 Ionic strength (mol/kgw)  =   1.333e-03
                       Mass of water (kg)  =   1.000e+00
                 Total alkalinity (eq/kg)  =  -3.823e-12
                       Total CO2 (mol/kg)  =   3.627e+00
                         Temperature (°C)  =  25.00
                           Pressure (atm)  = 107.04
                  Electrical balance (eq)  =   3.823e-12
 Percent error, 100*(Cat-|An|)/(Cat+|An|)  =   0.00
                               Iterations  =  27
                         Gamma iterations  =   3
                      Osmotic coefficient  =   0.99999
                                  Total H  = 1.110172e+02
                                  Total O  = 6.276144e+01

----------------------------Distribution of species----------------------------

                                               Log       Log       Log    mole V
   Species          Molality    Activity  Molality  Activity     Gamma    cmł/mol

   H+              1.333e-03   1.281e-03    -2.875    -2.893    -0.018      0.00
   OH-             8.234e-12   7.907e-12   -11.084   -11.102    -0.018     (0)  
   H2O             5.551e+01   9.367e-01     1.744    -0.028     0.000     17.98
C(-4)         0.000e+00
   CH4             0.000e+00   0.000e+00  -126.578  -126.578     0.000     (0)  
C(4)          3.627e+00
   CO2             3.625e+00   3.625e+00     0.559     0.559     0.000     (0)  
   HCO3-           1.333e-03   1.281e-03    -2.875    -2.893    -0.018     (0)  
   CO3-2           5.499e-11   4.677e-11   -10.260   -10.330    -0.070     (0)  
   CO              0.000e+00   0.000e+00   -41.685   -41.685     0.000     (0)  
H(0)          0.000e+00
   H2              0.000e+00   0.000e+00   -40.239   -40.239     0.000     (0)  
O(0)          4.470e-12
   O2              2.235e-12   2.235e-12   -11.651   -11.651     0.000     (0)  
   CO              0.000e+00   0.000e+00   -41.685   -41.685     0.000     (0)  

------------------------------Saturation indices-------------------------------

  Phase               SI** log IAP   log K(298 K, 107 atm)

  C(cr)           -58.30     -4.44   53.86  C
  CH4(g)         -123.72      7.16  130.88  CH4
  CO(g)           -38.65    -10.26   28.38  CO
  CO2(g)            2.03    -16.09  -18.12  CO2
  H2(g)           -37.16      5.80   42.96  H2
  H2O(g)           -1.49     -0.03    1.47  H2O
  O2(g)            -8.75    -11.65   -2.90  O2

**For a gas, SI = log10(fugacity). Fugacity = pressure * phi / 1 atm.
  For ideal gases, phi = 1.

Reaction step 10.

Using solution 1.	
Using gas phase 1.	
Using reaction 1.	

Reaction 1.	

	  1.000e+00 moles of the following reaction have been added:

	                 Relative
	Reactant            moles

	CO2                  1.00000

	                 Relative
	Element             moles
	C                    1.00000
	O                    2.00000

-----------------------------------Gas phase-----------------------------------

Total pressure: 120.41      atmospheres 
    Gas volume:   1.00e+00 liters
  Molar volume:   2.03e-01 liters/mole

                                                        Moles in gas
                                            ----------------------------------
Component                log P           P     Initial       Final       Delta

CO2(g)                    2.08   1.204e+02   4.374e+00   4.920e+00   5.467e-01
H2O(g)                   -1.49   3.207e-02   1.309e-03   1.311e-03   2.113e-06

-----------------------------Solution composition------------------------------

	Elements           Molality       Moles

	C                 4.080e+00   4.080e+00

----------------------------Description of solution----------------------------

                                       pH  =   2.867      Charge balance
                                       pe  =  15.713      Adjusted to redox equilibrium
                        Activity of water  =   0.929
                 Ionic strength (mol/kgw)  =   1.417e-03
                       Mass of water (kg)  =   1.000e+00
                 Total alkalinity (eq/kg)  =  -3.823e-12
                       Total CO2 (mol/kg)  =   4.080e+00
                         Temperature (°C)  =  25.00
                           Pressure (atm)  = 120.41
                  Electrical balance (eq)  =   3.823e-12
 Percent error, 100*(Cat-|An|)/(Cat+|An|)  =   0.00
                               Iterations  =  31
                         Gamma iterations  =   3
                      Osmotic coefficient  =   0.99999
                                  Total H  = 1.110172e+02
                                  Total O  = 6.366795e+01

----------------------------Distribution of species----------------------------

                                               Log       Log       Log    mole V
   Species          Molality    Activity  Molality  Activity     Gamma    cmł/mol

   H+              1.417e-03   1.359e-03    -2.849    -2.867    -0.018      0.00
   OH-             7.778e-12   7.461e-12   -11.109   -11.127    -0.018     (0)  
   H2O             5.551e+01   9.291e-01     1.744    -0.032     0.000     17.97
C(-4)         0.000e+00
   CH4             0.000e+00   0.000e+00  -126.526  -126.526     0.000     (0)  
C(4)          4.080e+00
   CO2             4.078e+00   4.078e+00     0.610     0.610     0.000     (0)  
   HCO3-           1.417e-03   1.359e-03    -2.849    -2.867    -0.018     (0)  
   CO3-2           5.524e-11   4.677e-11   -10.258   -10.330    -0.072     (0)  
   CO              0.000e+00   0.000e+00   -41.634   -41.634     0.000     (0)  
H(0)          0.000e+00
   H2              0.000e+00   0.000e+00   -40.238   -40.238     0.000     (0)  
O(0)          4.472e-12
   O2              2.236e-12   2.236e-12   -11.651   -11.651     0.000     (0)  
   CO              0.000e+00   0.000e+00   -41.634   -41.634     0.000     (0)  

------------------------------Saturation indices-------------------------------

  Phase               SI** log IAP   log K(298 K, 120 atm)

  C(cr)           -58.25     -4.38   53.87  C
  CH4(g)         -123.67      7.21  130.87  CH4
  CO(g)           -38.59    -10.21   28.39  CO
  CO2(g)            2.08    -16.03  -18.11  CO2
  H2(g)           -37.16      5.79   42.95  H2
  H2O(g)           -1.49     -0.03    1.46  H2O
  O2(g)            -8.75    -11.65   -2.90  O2

**For a gas, SI = log10(fugacity). Fugacity = pressure * phi / 1 atm.
  For ideal gases, phi = 1.

Reaction step 11.

Using solution 1.	
Using gas phase 1.	
Using reaction 1.	

Reaction 1.	

	  1.000e+00 moles of the following reaction have been added:

	                 Relative
	Reactant            moles

	CO2                  1.00000

	                 Relative
	Element             moles
	C                    1.00000
	O                    2.00000

-----------------------------------Gas phase-----------------------------------

Total pressure: 133.79      atmospheres 
    Gas volume:   1.00e+00 liters
  Molar volume:   1.83e-01 liters/mole

                                                        Moles in gas
                                            ----------------------------------
Component                log P           P     Initial       Final       Delta

CO2(g)                    2.13   1.338e+02   4.920e+00   5.467e+00   5.467e-01
H2O(g)                   -1.49   3.213e-02   1.311e-03   1.313e-03   2.101e-06

-----------------------------Solution composition------------------------------

	Elements           Molality       Moles

	C                 4.533e+00   4.533e+00

----------------------------Description of solution----------------------------

                                       pH  =   2.843      Charge balance
                                       pe  =  15.735      Adjusted to redox equilibrium
                        Activity of water  =   0.922
                 Ionic strength (mol/kgw)  =   1.497e-03
                       Mass of water (kg)  =   9.999e-01
                 Total alkalinity (eq/kg)  =  -3.823e-12
                       Total CO2 (mol/kg)  =   4.533e+00
                         Temperature (°C)  =  25.00
                           Pressure (atm)  = 133.79
                  Electrical balance (eq)  =   3.823e-12
 Percent error, 100*(Cat-|An|)/(Cat+|An|)  =   0.00
                               Iterations  =  33
                         Gamma iterations  =   3
                      Osmotic coefficient  =   0.99999
                                  Total H  = 1.110172e+02
                                  Total O  = 6.457445e+01

----------------------------Distribution of species----------------------------

                                               Log       Log       Log    mole V
   Species          Molality    Activity  Molality  Activity     Gamma    cmł/mol

   H+              1.497e-03   1.434e-03    -2.825    -2.843    -0.019      0.00
   OH-             7.393e-12   7.084e-12   -11.131   -11.150    -0.019     (0)  
   H2O             5.551e+01   9.216e-01     1.744    -0.035     0.000     17.96
C(-4)         0.000e+00
   CH4             0.000e+00   0.000e+00  -126.479  -126.479     0.000     (0)  
C(4)          4.533e+00
   CO2             4.532e+00   4.532e+00     0.656     0.656     0.000     (0)  
   HCO3-           1.497e-03   1.434e-03    -2.825    -2.843    -0.019     (0)  
   CO3-2           5.548e-11   4.677e-11   -10.256   -10.330    -0.074     (0)  
   CO              0.000e+00   0.000e+00   -41.589   -41.589     0.000     (0)  
H(0)          0.000e+00
   H2              0.000e+00   0.000e+00   -40.238   -40.238     0.000     (0)  
O(0)          4.472e-12
   O2              2.236e-12   2.236e-12   -11.651   -11.651     0.000     (0)  
   CO              0.000e+00   0.000e+00   -41.589   -41.589     0.000     (0)  

------------------------------Saturation indices-------------------------------

  Phase               SI** log IAP   log K(298 K, 134 atm)

  C(cr)           -58.20     -4.33   53.87  C
  CH4(g)         -123.62      7.25  130.87  CH4
  CO(g)           -38.55    -10.16   28.39  CO
  CO2(g)            2.13    -15.98  -18.11  CO2
  H2(g)           -37.16      5.79   42.95  H2
  H2O(g)           -1.49     -0.04    1.46  H2O
  O2(g)            -8.75    -11.65   -2.90  O2

**For a gas, SI = log10(fugacity). Fugacity = pressure * phi / 1 atm.
  For ideal gases, phi = 1.

Reaction step 12.

Using solution 1.	
Using gas phase 1.	
Using reaction 1.	

Reaction 1.	

	  1.000e+00 moles of the following reaction have been added:

	                 Relative
	Reactant            moles

	CO2                  1.00000

	                 Relative
	Element             moles
	C                    1.00000
	O                    2.00000

-----------------------------------Gas phase-----------------------------------

Total pressure: 147.17      atmospheres 
    Gas volume:   1.00e+00 liters
  Molar volume:   1.66e-01 liters/mole

                                                        Moles in gas
                                            ----------------------------------
Component                log P           P     Initial       Final       Delta

CO2(g)                    2.17   1.471e+02   5.467e+00   6.014e+00   5.468e-01
H2O(g)                   -1.49   3.218e-02   1.313e-03   1.315e-03   2.090e-06

-----------------------------Solution composition------------------------------

	Elements           Molality       Moles

	C                 4.986e+00   4.986e+00

----------------------------Description of solution----------------------------

                                       pH  =   2.822      Charge balance
                                       pe  =  15.757      Adjusted to redox equilibrium
                        Activity of water  =   0.914
                 Ionic strength (mol/kgw)  =   1.572e-03
                       Mass of water (kg)  =   9.999e-01
                 Total alkalinity (eq/kg)  =  -3.823e-12
                       Total CO2 (mol/kg)  =   4.986e+00
                         Temperature (°C)  =  25.00
                           Pressure (atm)  = 147.17
                  Electrical balance (eq)  =   3.823e-12
 Percent error, 100*(Cat-|An|)/(Cat+|An|)  =   0.00
                               Iterations  =  34
                         Gamma iterations  =   3
                      Osmotic coefficient  =   0.99999
                                  Total H  = 1.110172e+02
                                  Total O  = 6.548094e+01

----------------------------Distribution of species----------------------------

                                               Log       Log       Log    mole V
   Species          Molality    Activity  Molality  Activity     Gamma    cmł/mol

   H+              1.572e-03   1.505e-03    -2.803    -2.822    -0.019      0.00
   OH-             7.061e-12   6.760e-12   -11.151   -11.170    -0.019     (0)  
   H2O             5.551e+01   9.141e-01     1.744    -0.039     0.000     17.95
C(-4)         0.000e+00
   CH4             0.000e+00   0.000e+00  -126.439  -126.439     0.000     (0)  
C(4)          4.986e+00
   CO2             4.985e+00   4.985e+00     0.698     0.698     0.000     (0)  
   HCO3-           1.572e-03   1.505e-03    -2.803    -2.822    -0.019     (0)  
   CO3-2           5.570e-11   4.677e-11   -10.254   -10.330    -0.076     (0)  
   CO              0.000e+00   0.000e+00   -41.548   -41.548     0.000     (0)  
H(0)          0.000e+00
   H2              0.000e+00   0.000e+00   -40.238   -40.238     0.000     (0)  
O(0)          4.489e-12
   O2              2.244e-12   2.244e-12   -11.649   -11.649     0.000     (0)  
   CO              0.000e+00   0.000e+00   -41.548   -41.548     0.000     (0)  

------------------------------Saturation indices-------------------------------

  Phase               SI** log IAP   log K(298 K, 147 atm)

  C(cr)           -58.16     -4.29   53.88  C
  CH4(g)         -123.58      7.28  130.86  CH4
  CO(g)           -38.51    -10.11   28.40  CO
  CO2(g)            2.17    -15.94  -18.10  CO2
  H2(g)           -37.16      5.79   42.94  H2
  H2O(g)           -1.49     -0.04    1.45  H2O
  O2(g)            -8.75    -11.65   -2.90  O2

**For a gas, SI = log10(fugacity). Fugacity = pressure * phi / 1 atm.
  For ideal gases, phi = 1.

Reaction step 13.

Using solution 1.	
Using gas phase 1.	
Using reaction 1.	

Reaction 1.	

	  1.000e+00 moles of the following reaction have been added:

	                 Relative
	Reactant            moles

	CO2                  1.00000

	                 Relative
	Element             moles
	C                    1.00000
	O                    2.00000

-----------------------------------Gas phase-----------------------------------

Total pressure: 160.54      atmospheres 
    Gas volume:   1.00e+00 liters
  Molar volume:   1.52e-01 liters/mole

                                                        Moles in gas
                                            ----------------------------------
Component                log P           P     Initial       Final       Delta

CO2(g)                    2.21   1.605e+02   6.014e+00   6.561e+00   5.468e-01
H2O(g)                   -1.49   3.223e-02   1.315e-03   1.317e-03   2.078e-06

-----------------------------Solution composition------------------------------

	Elements           Molality       Moles

	C                 5.440e+00   5.439e+00

----------------------------Description of solution----------------------------

                                       pH  =   2.803      Charge balance
                                       pe  =  15.913      Adjusted to redox equilibrium
                        Activity of water  =   0.907
                 Ionic strength (mol/kgw)  =   1.645e-03
                       Mass of water (kg)  =   9.999e-01
                 Total alkalinity (eq/kg)  =  -3.823e-12
                       Total CO2 (mol/kg)  =   5.440e+00
                         Temperature (°C)  =  25.00
                           Pressure (atm)  = 160.54
                  Electrical balance (eq)  =   3.823e-12
 Percent error, 100*(Cat-|An|)/(Cat+|An|)  =   0.00
                               Iterations  =  36
                         Gamma iterations  =   3
                      Osmotic coefficient  =   0.99999
                                  Total H  = 1.110172e+02
                                  Total O  = 6.638743e+01

----------------------------Distribution of species----------------------------

                                               Log       Log       Log    mole V
   Species          Molality    Activity  Molality  Activity     Gamma    cmł/mol

   H+              1.645e-03   1.573e-03    -2.784    -2.803    -0.019      0.00
   OH-             6.772e-12   6.477e-12   -11.169   -11.189    -0.019     (0)  
   H2O             5.551e+01   9.066e-01     1.744    -0.043     0.000     17.94
C(-4)         0.000e+00
   CH4             0.000e+00   0.000e+00  -127.499  -127.499     0.000     (0)  
C(4)          5.440e+00
   CO2             5.438e+00   5.438e+00     0.735     0.735     0.000     (0)  
   HCO3-           1.645e-03   1.573e-03    -2.784    -2.803    -0.019     (0)  
   CO3-2           5.590e-11   4.677e-11   -10.253   -10.330    -0.077     (0)  
   CO              0.000e+00   0.000e+00   -41.785   -41.785     0.000     (0)  
H(0)          0.000e+00
   H2              0.000e+00   0.000e+00   -40.512   -40.512     0.000     (0)  
O(0)          1.590e-11
   O2              7.950e-12   7.950e-12   -11.100   -11.100     0.000     (0)  
   CO              0.000e+00   0.000e+00   -41.785   -41.785     0.000     (0)  

------------------------------Saturation indices-------------------------------

  Phase               SI** log IAP   log K(298 K, 161 atm)

  C(cr)           -58.67     -4.79   53.88  C
  CH4(g)         -124.64      6.22  130.86  CH4
  CO(g)           -38.74    -10.34   28.40  CO
  CO2(g)            2.21    -15.89  -18.10  CO2
  H2(g)           -37.43      5.51   42.94  H2
  H2O(g)           -1.49     -0.04    1.45  H2O
  O2(g)            -8.20    -11.10   -2.90  O2

**For a gas, SI = log10(fugacity). Fugacity = pressure * phi / 1 atm.
  For ideal gases, phi = 1.

Reaction step 14.

Using solution 1.	
Using gas phase 1.	
Using reaction 1.	

Reaction 1.	

	  1.000e+00 moles of the following reaction have been added:

	                 Relative
	Reactant            moles

	CO2                  1.00000

	                 Relative
	Element             moles
	C                    1.00000
	O                    2.00000

-----------------------------------Gas phase-----------------------------------

Total pressure: 173.92      atmospheres 
    Gas volume:   1.00e+00 liters
  Molar volume:   1.41e-01 liters/mole

                                                        Moles in gas
                                            ----------------------------------
Component                log P           P     Initial       Final       Delta

CO2(g)                    2.24   1.739e+02   6.561e+00   7.107e+00   5.468e-01
H2O(g)                   -1.49   3.228e-02   1.317e-03   1.319e-03   2.067e-06

-----------------------------Solution composition------------------------------

	Elements           Molality       Moles

	C                 5.893e+00   5.893e+00

----------------------------Description of solution----------------------------

                                       pH  =   2.785      Charge balance
                                       pe  =  15.930      Adjusted to redox equilibrium
                        Activity of water  =   0.899
                 Ionic strength (mol/kgw)  =   1.715e-03
                       Mass of water (kg)  =   9.999e-01
                 Total alkalinity (eq/kg)  =  -3.823e-12
                       Total CO2 (mol/kg)  =   5.893e+00
                         Temperature (°C)  =  25.00
                           Pressure (atm)  = 173.92
                  Electrical balance (eq)  =   3.823e-12
 Percent error, 100*(Cat-|An|)/(Cat+|An|)  =   0.00
                               Iterations  =  37
                         Gamma iterations  =   3
                      Osmotic coefficient  =   0.99999
                                  Total H  = 1.110172e+02
                                  Total O  = 6.729392e+01

----------------------------Distribution of species----------------------------

                                               Log       Log       Log    mole V
   Species          Molality    Activity  Molality  Activity     Gamma    cmł/mol

   H+              1.715e-03   1.639e-03    -2.766    -2.785    -0.020      0.00
   OH-             6.517e-12   6.228e-12   -11.186   -11.206    -0.020     (0)  
   H2O             5.551e+01   8.993e-01     1.744    -0.046     0.000     17.93
C(-4)         0.000e+00
   CH4             0.000e+00   0.000e+00  -127.462  -127.462     0.000     (0)  
C(4)          5.893e+00
   CO2             5.891e+00   5.891e+00     0.770     0.770     0.000     (0)  
   HCO3-           1.715e-03   1.639e-03    -2.766    -2.785    -0.020     (0)  
   CO3-2           5.609e-11   4.677e-11   -10.251   -10.330    -0.079     (0)  
   CO              0.000e+00   0.000e+00   -41.750   -41.750     0.000     (0)  
H(0)          0.000e+00
   H2              0.000e+00   0.000e+00   -40.511   -40.511     0.000     (0)  
O(0)          1.590e-11
   O2              7.949e-12   7.949e-12   -11.100   -11.100     0.000     (0)  
   CO              0.000e+00   0.000e+00   -41.750   -41.750     0.000     (0)  

------------------------------Saturation indices-------------------------------

  Phase               SI** log IAP   log K(298 K, 174 atm)

  C(cr)           -58.64     -4.76   53.88  C
  CH4(g)         -124.60      6.25  130.85  CH4
  CO(g)           -38.71    -10.30   28.41  CO
  CO2(g)            2.24    -15.85  -18.10  CO2
  H2(g)           -37.43      5.50   42.93  H2
  H2O(g)           -1.49     -0.05    1.44  H2O
  O2(g)            -8.20    -11.10   -2.90  O2

**For a gas, SI = log10(fugacity). Fugacity = pressure * phi / 1 atm.
  For ideal gases, phi = 1.

Reaction step 15.

Using solution 1.	
Using gas phase 1.	
Using reaction 1.	

Reaction 1.	

	  1.000e+00 moles of the following reaction have been added:

	                 Relative
	Reactant            moles

	CO2                  1.00000

	                 Relative
	Element             moles
	C                    1.00000
	O                    2.00000

-----------------------------------Gas phase-----------------------------------

Total pressure: 187.30      atmospheres 
    Gas volume:   1.00e+00 liters
  Molar volume:   1.31e-01 liters/mole

                                                        Moles in gas
                                            ----------------------------------
Component                log P           P     Initial       Final       Delta

CO2(g)                    2.27   1.873e+02   7.107e+00   7.654e+00   5.468e-01
H2O(g)                   -1.49   3.233e-02   1.319e-03   1.321e-03   2.055e-06

-----------------------------Solution composition------------------------------

	Elements           Molality       Moles

	C                 6.346e+00   6.346e+00

----------------------------Description of solution----------------------------

                                       pH  =   2.769      Charge balance
                                       pe  =  15.946      Adjusted to redox equilibrium
                        Activity of water  =   0.892
                 Ionic strength (mol/kgw)  =   1.783e-03
                       Mass of water (kg)  =   9.999e-01
                 Total alkalinity (eq/kg)  =  -3.823e-12
                       Total CO2 (mol/kg)  =   6.346e+00
                         Temperature (°C)  =  25.00
                           Pressure (atm)  = 187.30
                  Electrical balance (eq)  =   3.823e-12
 Percent error, 100*(Cat-|An|)/(Cat+|An|)  =   0.00
                               Iterations  =  40
                         Gamma iterations  =   3
                      Osmotic coefficient  =   0.99999
                                  Total H  = 1.110172e+02
                                  Total O  = 6.820040e+01

----------------------------Distribution of species----------------------------

                                               Log       Log       Log    mole V
   Species          Molality    Activity  Molality  Activity     Gamma    cmł/mol

   H+              1.783e-03   1.702e-03    -2.749    -2.769    -0.020      0.00
   OH-             6.290e-12   6.006e-12   -11.201   -11.221    -0.020     (0)  
   H2O             5.551e+01   8.919e-01     1.744    -0.050     0.000     17.92
C(-4)         0.000e+00
   CH4             0.000e+00   0.000e+00  -127.430  -127.430     0.000     (0)  
C(4)          6.346e+00
   CO2             6.344e+00   6.344e+00     0.802     0.802     0.000     (0)  
   HCO3-           1.783e-03   1.702e-03    -2.749    -2.769    -0.020     (0)  
   CO3-2           5.627e-11   4.677e-11   -10.250   -10.330    -0.080     (0)  
   CO              0.000e+00   0.000e+00   -41.718   -41.718     0.000     (0)  
H(0)          0.000e+00
   H2              0.000e+00   0.000e+00   -40.511   -40.511     0.000     (0)  
O(0)          1.592e-11
   O2              7.959e-12   7.959e-12   -11.099   -11.099     0.000     (0)  
   CO              0.000e+00   0.000e+00   -41.718   -41.718     0.000     (0)  

------------------------------Saturation indices-------------------------------

  Phase               SI** log IAP   log K(298 K, 187 atm)

  C(cr)           -58.61     -4.72   53.89  C
  CH4(g)         -124.57      6.28  130.85  CH4
  CO(g)           -38.68    -10.27   28.41  CO
  CO2(g)            2.27    -15.82  -18.09  CO2
  H2(g)           -37.43      5.50   42.93  H2
  H2O(g)           -1.49     -0.05    1.44  H2O
  O2(g)            -8.20    -11.10   -2.90  O2

**For a gas, SI = log10(fugacity). Fugacity = pressure * phi / 1 atm.
  For ideal gases, phi = 1.

Reaction step 16.

Using solution 1.	
Using gas phase 1.	
Using reaction 1.	

Reaction 1.	

	  1.000e+00 moles of the following reaction have been added:

	                 Relative
	Reactant            moles

	CO2                  1.00000

	                 Relative
	Element             moles
	C                    1.00000
	O                    2.00000

-----------------------------------Gas phase-----------------------------------

Total pressure: 200.68      atmospheres 
    Gas volume:   1.00e+00 liters
  Molar volume:   1.22e-01 liters/mole

                                                        Moles in gas
                                            ----------------------------------
Component                log P           P     Initial       Final       Delta

CO2(g)                    2.30   2.006e+02   7.654e+00   8.201e+00   5.468e-01
H2O(g)                   -1.49   3.238e-02   1.321e-03   1.323e-03   2.044e-06

-----------------------------Solution composition------------------------------

	Elements           Molality       Moles

	C                 6.800e+00   6.799e+00

----------------------------Description of solution----------------------------

                                       pH  =   2.754      Charge balance
                                       pe  =  15.961      Adjusted to redox equilibrium
                        Activity of water  =   0.885
                 Ionic strength (mol/kgw)  =   1.848e-03
                       Mass of water (kg)  =   9.999e-01
                 Total alkalinity (eq/kg)  =  -3.823e-12
                       Total CO2 (mol/kg)  =   6.800e+00
                         Temperature (°C)  =  25.00
                           Pressure (atm)  = 200.68
                  Electrical balance (eq)  =   3.823e-12
 Percent error, 100*(Cat-|An|)/(Cat+|An|)  =   0.00
                               Iterations  =  43
                         Gamma iterations  =   3
                      Osmotic coefficient  =   0.99999
                                  Total H  = 1.110172e+02
                                  Total O  = 6.910688e+01

----------------------------Distribution of species----------------------------

                                               Log       Log       Log    mole V
   Species          Molality    Activity  Molality  Activity     Gamma    cmł/mol

   H+              1.848e-03   1.763e-03    -2.733    -2.754    -0.020      0.00
   OH-             6.086e-12   5.807e-12   -11.216   -11.236    -0.020     (0)  
   H2O             5.551e+01   8.847e-01     1.744    -0.053     0.000     17.91
C(-4)         0.000e+00
   CH4             0.000e+00   0.000e+00  -127.399  -127.399     0.000     (0)  
C(4)          6.800e+00
   CO2             6.798e+00   6.798e+00     0.832     0.832     0.000     (0)  
   HCO3-           1.848e-03   1.763e-03    -2.733    -2.754    -0.020     (0)  
   CO3-2           5.644e-11   4.677e-11   -10.248   -10.330    -0.082     (0)  
   CO              0.000e+00   0.000e+00   -41.688   -41.688     0.000     (0)  
H(0)          0.000e+00
   H2              0.000e+00   0.000e+00   -40.510   -40.510     0.000     (0)  
O(0)          1.592e-11
   O2              7.959e-12   7.959e-12   -11.099   -11.099     0.000     (0)  
   CO              0.000e+00   0.000e+00   -41.688   -41.688     0.000     (0)  

------------------------------Saturation indices-------------------------------

  Phase               SI** log IAP   log K(298 K, 201 atm)

  C(cr)           -58.58     -4.69   53.89  C
  CH4(g)         -124.54      6.31  130.85  CH4
  CO(g)           -38.65    -10.23   28.41  CO
  CO2(g)            2.30    -15.78  -18.09  CO2
  H2(g)           -37.43      5.50   42.93  H2
  H2O(g)           -1.49     -0.05    1.44  H2O
  O2(g)            -8.20    -11.10   -2.90  O2

**For a gas, SI = log10(fugacity). Fugacity = pressure * phi / 1 atm.
  For ideal gases, phi = 1.

Reaction step 17.

Using solution 1.	
Using gas phase 1.	
Using reaction 1.	

Reaction 1.	

	  1.000e+00 moles of the following reaction have been added:

	                 Relative
	Reactant            moles

	CO2                  1.00000

	                 Relative
	Element             moles
	C                    1.00000
	O                    2.00000

-----------------------------------Gas phase-----------------------------------

Total pressure: 214.05      atmospheres 
    Gas volume:   1.00e+00 liters
  Molar volume:   1.14e-01 liters/mole

                                                        Moles in gas
                                            ----------------------------------
Component                log P           P     Initial       Final       Delta

CO2(g)                    2.33   2.140e+02   8.201e+00   8.748e+00   5.468e-01
H2O(g)                   -1.49   3.243e-02   1.323e-03   1.325e-03   2.032e-06

-----------------------------Solution composition------------------------------

	Elements           Molality       Moles

	C                 7.253e+00   7.252e+00

----------------------------Description of solution----------------------------

                                       pH  =   2.739      Charge balance
                                       pe  =  15.975      Adjusted to redox equilibrium
                        Activity of water  =   0.877
                 Ionic strength (mol/kgw)  =   1.912e-03
                       Mass of water (kg)  =   9.999e-01
                 Total alkalinity (eq/kg)  =  -3.823e-12
                       Total CO2 (mol/kg)  =   7.253e+00
                         Temperature (°C)  =  25.00
                           Pressure (atm)  = 214.05
                  Electrical balance (eq)  =   3.823e-12
 Percent error, 100*(Cat-|An|)/(Cat+|An|)  =   0.00
                               Iterations  =  45
                         Gamma iterations  =   3
                      Osmotic coefficient  =   0.99999
                                  Total H  = 1.110172e+02
                                  Total O  = 7.001335e+01

----------------------------Distribution of species----------------------------

                                               Log       Log       Log    mole V
   Species          Molality    Activity  Molality  Activity     Gamma    cmł/mol

   H+              1.912e-03   1.823e-03    -2.719    -2.739    -0.021      0.00
   OH-             5.901e-12   5.627e-12   -11.229   -11.250    -0.021     (0)  
   H2O             5.551e+01   8.775e-01     1.744    -0.057     0.000     17.90
C(-4)         0.000e+00
   CH4             0.000e+00   0.000e+00  -127.369  -127.369     0.000     (0)  
C(4)          7.253e+00
   CO2             7.251e+00   7.251e+00     0.860     0.860     0.000     (0)  
   HCO3-           1.912e-03   1.823e-03    -2.719    -2.739    -0.021     (0)  
   CO3-2           5.661e-11   4.677e-11   -10.247   -10.330    -0.083     (0)  
   CO              0.000e+00   0.000e+00   -41.660   -41.660     0.000     (0)  
H(0)          0.000e+00
   H2              0.000e+00   0.000e+00   -40.509   -40.509     0.000     (0)  
O(0)          1.592e-11
   O2              7.959e-12   7.959e-12   -11.099   -11.099     0.000     (0)  
   CO              0.000e+00   0.000e+00   -41.660   -41.660     0.000     (0)  

------------------------------Saturation indices-------------------------------

  Phase               SI** log IAP   log K(298 K, 214 atm)

  C(cr)           -58.55     -4.65   53.90  C
  CH4(g)         -124.51      6.33  130.84  CH4
  CO(g)           -38.62    -10.20   28.42  CO
  CO2(g)            2.33    -15.75  -18.08  CO2
  H2(g)           -37.43      5.49   42.92  H2
  H2O(g)           -1.49     -0.06    1.43  H2O
  O2(g)            -8.20    -11.10   -2.90  O2

**For a gas, SI = log10(fugacity). Fugacity = pressure * phi / 1 atm.
  For ideal gases, phi = 1.

Reaction step 18.

Using solution 1.	
Using gas phase 1.	
Using reaction 1.	

Reaction 1.	

	  1.000e+00 moles of the following reaction have been added:

	                 Relative
	Reactant            moles

	CO2                  1.00000

	                 Relative
	Element             moles
	C                    1.00000
	O                    2.00000

-----------------------------------Gas phase-----------------------------------

Total pressure: 227.43      atmospheres 
    Gas volume:   1.00e+00 liters
  Molar volume:   1.08e-01 liters/mole

                                                        Moles in gas
                                            ----------------------------------
Component                log P           P     Initial       Final       Delta

CO2(g)                    2.36   2.274e+02   8.748e+00   9.294e+00   5.468e-01
H2O(g)                   -1.49   3.248e-02   1.325e-03   1.327e-03   2.021e-06

-----------------------------Solution composition------------------------------

	Elements           Molality       Moles

	C                 7.706e+00   7.706e+00

----------------------------Description of solution----------------------------

                                       pH  =   2.726      Charge balance
                                       pe  =  15.989      Adjusted to redox equilibrium
                        Activity of water  =   0.870
                 Ionic strength (mol/kgw)  =   1.973e-03
                       Mass of water (kg)  =   9.999e-01
                 Total alkalinity (eq/kg)  =  -3.823e-12
                       Total CO2 (mol/kg)  =   7.706e+00
                         Temperature (°C)  =  25.00
                           Pressure (atm)  = 227.43
                  Electrical balance (eq)  =   3.823e-12
 Percent error, 100*(Cat-|An|)/(Cat+|An|)  =   0.00
                               Iterations  =  47
                         Gamma iterations  =   3
                      Osmotic coefficient  =   0.99999
                                  Total H  = 1.110172e+02
                                  Total O  = 7.091982e+01

----------------------------Distribution of species----------------------------

                                               Log       Log       Log    mole V
   Species          Molality    Activity  Molality  Activity     Gamma    cmł/mol

   H+              1.973e-03   1.880e-03    -2.705    -2.726    -0.021      0.00
   OH-             5.734e-12   5.463e-12   -11.242   -11.263    -0.021     (0)  
   H2O             5.551e+01   8.703e-01     1.744    -0.060     0.000     17.89
C(-4)         0.000e+00
   CH4             0.000e+00   0.000e+00  -127.342  -127.342     0.000     (0)  
C(4)          7.706e+00
   CO2             7.704e+00   7.704e+00     0.887     0.887     0.000     (0)  
   HCO3-           1.973e-03   1.880e-03    -2.705    -2.726    -0.021     (0)  
   CO3-2           5.676e-11   4.677e-11   -10.246   -10.330    -0.084     (0)  
   CO              0.000e+00   0.000e+00   -41.634   -41.634     0.000     (0)  
H(0)          0.000e+00
   H2              0.000e+00   0.000e+00   -40.509   -40.509     0.000     (0)  
O(0)          1.592e-11
   O2              7.962e-12   7.962e-12   -11.099   -11.099     0.000     (0)  
   CO              0.000e+00   0.000e+00   -41.634   -41.634     0.000     (0)  

------------------------------Saturation indices-------------------------------

  Phase               SI** log IAP   log K(298 K, 227 atm)

  C(cr)           -58.52     -4.62   53.90  C
  CH4(g)         -124.48      6.36  130.84  CH4
  CO(g)           -38.59    -10.17   28.42  CO
  CO2(g)            2.36    -15.72  -18.08  CO2
  H2(g)           -37.43      5.49   42.92  H2
  H2O(g)           -1.49     -0.06    1.43  H2O
  O2(g)            -8.20    -11.10   -2.90  O2

**For a gas, SI = log10(fugacity). Fugacity = pressure * phi / 1 atm.
  For ideal gases, phi = 1.

Reaction step 19.

Using solution 1.	
Using gas phase 1.	
Using reaction 1.	

Reaction 1.	

	  1.000e+00 moles of the following reaction have been added:

	                 Relative
	Reactant            moles

	CO2                  1.00000

	                 Relative
	Element             moles
	C                    1.00000
	O                    2.00000

-----------------------------------Gas phase-----------------------------------

Total pressure: 240.81      atmospheres 
    Gas volume:   1.00e+00 liters
  Molar volume:   1.02e-01 liters/mole

                                                        Moles in gas
                                            ----------------------------------
Component                log P           P     Initial       Final       Delta

CO2(g)                    2.38   2.408e+02   9.294e+00   9.841e+00   5.468e-01
H2O(g)                   -1.49   3.253e-02   1.327e-03   1.329e-03   2.009e-06

-----------------------------Solution composition------------------------------

	Elements           Molality       Moles

	C                 8.159e+00   8.159e+00

----------------------------Description of solution----------------------------

                                       pH  =   2.713      Charge balance
                                       pe  =  16.001      Adjusted to redox equilibrium
                        Activity of water  =   0.863
                 Ionic strength (mol/kgw)  =   2.033e-03
                       Mass of water (kg)  =   9.999e-01
                 Total alkalinity (eq/kg)  =  -3.823e-12
                       Total CO2 (mol/kg)  =   8.159e+00
                         Temperature (°C)  =  25.00
                           Pressure (atm)  = 240.81
                  Electrical balance (eq)  =   3.823e-12
 Percent error, 100*(Cat-|An|)/(Cat+|An|)  =   0.00
                               Iterations  =  49
                         Gamma iterations  =   3
                      Osmotic coefficient  =   0.99999
                                  Total H  = 1.110172e+02
                                  Total O  = 7.182629e+01

----------------------------Distribution of species----------------------------

                                               Log       Log       Log    mole V
   Species          Molality    Activity  Molality  Activity     Gamma    cmł/mol

   H+              2.033e-03   1.936e-03    -2.692    -2.713    -0.021      0.00
   OH-             5.580e-12   5.313e-12   -11.253   -11.275    -0.021     (0)  
   H2O             5.551e+01   8.633e-01     1.744    -0.064     0.000     17.88
C(-4)         0.000e+00
   CH4             0.000e+00   0.000e+00  -127.316  -127.316     0.000     (0)  
C(4)          8.159e+00
   CO2             8.157e+00   8.157e+00     0.912     0.912     0.000     (0)  
   HCO3-           2.033e-03   1.936e-03    -2.692    -2.713    -0.021     (0)  
   CO3-2           5.691e-11   4.677e-11   -10.245   -10.330    -0.085     (0)  
   CO              0.000e+00   0.000e+00   -41.609   -41.609     0.000     (0)  
H(0)          0.000e+00
   H2              0.000e+00   0.000e+00   -40.508   -40.508     0.000     (0)  
O(0)          1.592e-11
   O2              7.960e-12   7.960e-12   -11.099   -11.099     0.000     (0)  
   CO              0.000e+00   0.000e+00   -41.609   -41.609     0.000     (0)  

------------------------------Saturation indices-------------------------------

  Phase               SI** log IAP   log K(298 K, 241 atm)

  C(cr)           -58.50     -4.59   53.91  C
  CH4(g)         -124.46      6.38  130.83  CH4
  CO(g)           -38.57    -10.14   28.43  CO
  CO2(g)            2.38    -15.69  -18.07  CO2
  H2(g)           -37.43      5.49   42.91  H2
  H2O(g)           -1.49     -0.06    1.42  H2O
  O2(g)            -8.20    -11.10   -2.90  O2

**For a gas, SI = log10(fugacity). Fugacity = pressure * phi / 1 atm.
  For ideal gases, phi = 1.

Reaction step 20.

Using solution 1.	
Using gas phase 1.	
Using reaction 1.	

Reaction 1.	

	  1.000e+00 moles of the following reaction have been added:

	                 Relative
	Reactant            moles

	CO2                  1.00000

	                 Relative
	Element             moles
	C                    1.00000
	O                    2.00000

-----------------------------------Gas phase-----------------------------------

Total pressure: 254.18      atmospheres 
    Gas volume:   1.00e+00 liters
  Molar volume:   9.63e-02 liters/mole

                                                        Moles in gas
                                            ----------------------------------
Component                log P           P     Initial       Final       Delta

CO2(g)                    2.41   2.542e+02   9.841e+00   1.039e+01   5.468e-01
H2O(g)                   -1.49   3.258e-02   1.329e-03   1.331e-03   1.998e-06

-----------------------------Solution composition------------------------------

	Elements           Molality       Moles

	C                 8.613e+00   8.612e+00

----------------------------Description of solution----------------------------

                                       pH  =   2.701      Charge balance
                                       pe  =  16.013      Adjusted to redox equilibrium
                        Activity of water  =   0.856
                 Ionic strength (mol/kgw)  =   2.092e-03
                       Mass of water (kg)  =   9.999e-01
                 Total alkalinity (eq/kg)  =  -3.823e-12
                       Total CO2 (mol/kg)  =   8.613e+00
                         Temperature (°C)  =  25.00
                           Pressure (atm)  = 254.18
                  Electrical balance (eq)  =   3.823e-12
 Percent error, 100*(Cat-|An|)/(Cat+|An|)  =   0.00
                               Iterations  =  50
                         Gamma iterations  =   3
                      Osmotic coefficient  =   0.99999
                                  Total H  = 1.110172e+02
                                  Total O  = 7.273276e+01

----------------------------Distribution of species----------------------------

                                               Log       Log       Log    mole V
   Species          Molality    Activity  Molality  Activity     Gamma    cmł/mol

[...]

Reaction step 23.

Using solution 1.	
Using gas phase 1.	
Using temperature 5.	
Using reaction 1.	

Reaction 1.	

	  1.000e+00 moles of the following reaction have been added:

	                 Relative
	Reactant            moles

	CO2                  1.00000

	                 Relative
	Element             moles
	C                    1.00000
	O                    2.00000

-----------------------------------Gas phase-----------------------------------

Total pressure: 695.74      atmospheres 
    Gas volume:   1.00e+00 liters
  Molar volume:   4.99e-02 liters/mole

                                                        Moles in gas
                                            ----------------------------------
Component                log P           P     Initial       Final       Delta

CO2(g)                    2.84   6.873e+02   1.889e+01   1.979e+01   8.999e-01
H2O(g)                    0.92   8.401e+00   2.384e-01   2.420e-01   3.539e-03

-----------------------------Solution composition------------------------------

	Elements           Molality       Moles

	C                 2.215e+00   2.206e+00

----------------------------Description of solution----------------------------

                                       pH  =   2.692      Charge balance
                                       pe  =   8.820      Adjusted to redox equilibrium
                        Activity of water  =   0.961
                 Ionic strength (mol/kgw)  =   2.169e-03
                       Mass of water (kg)  =   9.956e-01
                 Total alkalinity (eq/kg)  =  -3.840e-12
                       Total CO2 (mol/kg)  =   2.215e+00
                         Temperature (°C)  = 150.00
                           Pressure (atm)  = 695.74
                  Electrical balance (eq)  =   3.824e-12
 Percent error, 100*(Cat-|An|)/(Cat+|An|)  =   0.00
                               Iterations  = 151
                         Gamma iterations  =   3
                      Osmotic coefficient  =   0.99996
                                  Total H  = 1.105359e+02
                                  Total O  = 5.967899e+01

----------------------------Distribution of species----------------------------

                                               Log       Log       Log    mole V
   Species          Molality    Activity  Molality  Activity     Gamma    cmł/mol

   H+              2.169e-03   2.033e-03    -2.664    -2.692    -0.028      0.00
   OH-             5.699e-09   5.340e-09    -8.244    -8.272    -0.028     (0)  
   H2O             5.551e+01   9.608e-01     1.744    -0.017     0.000     18.92
C(-4)         0.000e+00
   CH4             0.000e+00   0.000e+00   -83.281   -83.281     0.000     (0)  
C(4)          2.215e+00
   CO2             2.213e+00   2.213e+00     0.345     0.345     0.000     (0)  
   HCO3-           2.169e-03   2.033e-03    -2.664    -2.692    -0.028     (0)  
   CO3-2           3.498e-10   2.696e-10    -9.456    -9.569    -0.113     (0)  
   CO              2.685e-28   2.685e-28   -27.571   -27.571     0.000     (0)  
H(0)          9.551e-27
   H2              4.775e-27   4.775e-27   -26.321   -26.321     0.000     (0)  
O(0)          4.163e-11
   O2              2.081e-11   2.081e-11   -10.682   -10.682     0.000     (0)  
   CO              2.685e-28   2.685e-28   -27.571   -27.571     0.000     (0)  

------------------------------Saturation indices-------------------------------

  Phase               SI** log IAP   log K(423 K, 696 atm)

  C(cr)           -38.72     -4.25   34.47  C
  CH4(g)          -79.75      6.39   86.14  CH4
  CO(g)           -23.99     -9.59   14.40  CO
  CO2(g)            2.84    -14.94  -17.77  CO2
  H2(g)           -23.02      5.32   28.35  H2
  H2O(g)            0.92     -0.02   -0.94  H2O
  O2(g)            -7.15    -10.68   -3.53  O2

**For a gas, SI = log10(fugacity). Fugacity = pressure * phi / 1 atm.
  For ideal gases, phi = 1.

Reaction step 24.

Using solution 1.	
Using gas phase 1.	
Using temperature 5.	
Using reaction 1.	

Reaction 1.	

	  1.000e+00 moles of the following reaction have been added:

	                 Relative
	Reactant            moles

	CO2                  1.00000

	                 Relative
	Element             moles
	C                    1.00000
	O                    2.00000

-----------------------------------Gas phase-----------------------------------

Total pressure: 727.11      atmospheres 
    Gas volume:   1.00e+00 liters
  Molar volume:   4.78e-02 liters/mole

                                                        Moles in gas
                                            ----------------------------------
Component                log P           P     Initial       Final       Delta

CO2(g)                    2.86   7.186e+02   1.979e+01   2.069e+01   8.999e-01
H2O(g)                    0.93   8.526e+00   2.420e-01   2.455e-01   3.581e-03

-----------------------------Solution composition------------------------------

	Elements           Molality       Moles

	C                 2.316e+00   2.306e+00

----------------------------Description of solution----------------------------

                                       pH  =   2.679      Charge balance
                                       pe  =   8.830      Adjusted to redox equilibrium
                        Activity of water  =   0.959
                 Ionic strength (mol/kgw)  =   2.236e-03
                       Mass of water (kg)  =   9.955e-01
                 Total alkalinity (eq/kg)  =  -3.841e-12
                       Total CO2 (mol/kg)  =   2.316e+00
                         Temperature (°C)  = 150.00
                           Pressure (atm)  = 727.11
                  Electrical balance (eq)  =   3.824e-12
 Percent error, 100*(Cat-|An|)/(Cat+|An|)  =   0.00
                               Iterations  = 172
                         Gamma iterations  =   3
                      Osmotic coefficient  =   0.99996
                                  Total H  = 1.105288e+02
                                  Total O  = 5.987558e+01

----------------------------Distribution of species----------------------------

                                               Log       Log       Log    mole V
   Species          Molality    Activity  Molality  Activity     Gamma    cmł/mol

   H+              2.236e-03   2.094e-03    -2.651    -2.679    -0.029      0.00
   OH-             5.619e-09   5.261e-09    -8.250    -8.279    -0.029     (0)  
   H2O             5.551e+01   9.591e-01     1.744    -0.018     0.000     18.89
C(-4)         0.000e+00
   CH4             0.000e+00   0.000e+00   -83.249   -83.249     0.000     (0)  
C(4)          2.316e+00
   CO2             2.314e+00   2.314e+00     0.364     0.364     0.000     (0)  
   HCO3-           2.236e-03   2.094e-03    -2.651    -2.679    -0.029     (0)  
   CO3-2           3.508e-10   2.696e-10    -9.455    -9.569    -0.114     (0)  
   CO              2.808e-28   2.808e-28   -27.552   -27.552     0.000     (0)  
H(0)          9.693e-27
   H2              4.847e-27   4.847e-27   -26.315   -26.315     0.000     (0)  
O(0)          4.162e-11
   O2              2.081e-11   2.081e-11   -10.682   -10.682     0.000     (0)  
   CO              2.808e-28   2.808e-28   -27.552   -27.552     0.000     (0)  

------------------------------Saturation indices-------------------------------

  Phase               SI** log IAP   log K(423 K, 727 atm)

  C(cr)           -38.70     -4.23   34.48  C
  CH4(g)          -79.71      6.42   86.13  CH4
  CO(g)           -23.97     -9.57   14.40  CO
  CO2(g)            2.86    -14.91  -17.77  CO2
  H2(g)           -23.02      5.32   28.34  H2
  H2O(g)            0.93     -0.02   -0.95  H2O
  O2(g)            -7.15    -10.68   -3.53  O2

**For a gas, SI = log10(fugacity). Fugacity = pressure * phi / 1 atm.
  For ideal gases, phi = 1.

Reaction step 25.

Using solution 1.	
Using gas phase 1.	
Using temperature 5.	
Using reaction 1.	

Reaction 1.	

	  1.000e+00 moles of the following reaction have been added:

	                 Relative
	Reactant            moles

	CO2                  1.00000

	                 Relative
	Element             moles
	C                    1.00000
	O                    2.00000

-----------------------------------Gas phase-----------------------------------

Total pressure: 758.48      atmospheres 
    Gas volume:   1.00e+00 liters
  Molar volume:   4.58e-02 liters/mole

                                                        Moles in gas
                                            ----------------------------------
Component                log P           P     Initial       Final       Delta

CO2(g)                    2.87   7.498e+02   2.069e+01   2.159e+01   8.999e-01
H2O(g)                    0.94   8.652e+00   2.455e-01   2.492e-01   3.623e-03

-----------------------------Solution composition------------------------------

	Elements           Molality       Moles

	C                 2.417e+00   2.406e+00

----------------------------Description of solution----------------------------

                                       pH  =   2.667      Charge balance
                                       pe  =   8.839      Adjusted to redox equilibrium
                        Activity of water  =   0.957
                 Ionic strength (mol/kgw)  =   2.303e-03
                       Mass of water (kg)  =   9.955e-01
                 Total alkalinity (eq/kg)  =  -3.841e-12
                       Total CO2 (mol/kg)  =   2.417e+00
                         Temperature (°C)  = 150.00
                           Pressure (atm)  = 758.48
                  Electrical balance (eq)  =   3.824e-12
 Percent error, 100*(Cat-|An|)/(Cat+|An|)  =   0.00
                               Iterations  = 199
                         Gamma iterations  =   3
                      Osmotic coefficient  =   0.99996
                                  Total H  = 1.105215e+02
                                  Total O  = 6.007210e+01

----------------------------Distribution of species----------------------------

                                               Log       Log       Log    mole V
   Species          Molality    Activity  Molality  Activity     Gamma    cmł/mol

   H+              2.303e-03   2.154e-03    -2.638    -2.667    -0.029      0.00
   OH-             5.545e-09   5.188e-09    -8.256    -8.285    -0.029     (0)  
   H2O             5.551e+01   9.574e-01     1.744    -0.019     0.000     18.86
C(-4)         0.000e+00
   CH4             0.000e+00   0.000e+00   -83.218   -83.218     0.000     (0)  
C(4)          2.417e+00
   CO2             2.414e+00   2.414e+00     0.383     0.383     0.000     (0)  
   HCO3-           2.303e-03   2.154e-03    -2.638    -2.667    -0.029     (0)  
   CO3-2           3.519e-10   2.696e-10    -9.454    -9.569    -0.116     (0)  
   CO              2.930e-28   2.930e-28   -27.533   -27.533     0.000     (0)  
H(0)          9.835e-27
   H2              4.917e-27   4.917e-27   -26.308   -26.308     0.000     (0)  
O(0)          4.163e-11
   O2              2.081e-11   2.081e-11   -10.682   -10.682     0.000     (0)  
   CO              2.930e-28   2.930e-28   -27.533   -27.533     0.000     (0)  

------------------------------Saturation indices-------------------------------

  Phase               SI** log IAP   log K(423 K, 758 atm)

  C(cr)           -38.69     -4.20   34.48  C
  CH4(g)          -79.68      6.44   86.12  CH4
  CO(g)           -23.95     -9.54   14.41  CO
  CO2(g)            2.87    -14.88  -17.76  CO2
  H2(g)           -23.01      5.32   28.33  H2
  H2O(g)            0.94     -0.02   -0.96  H2O
  O2(g)            -7.15    -10.68   -3.53  O2

**For a gas, SI = log10(fugacity). Fugacity = pressure * phi / 1 atm.
  For ideal gases, phi = 1.

Reaction step 26.

Using solution 1.	
Using gas phase 1.	
Using temperature 5.	
Using reaction 1.	

Reaction 1.	

	  1.000e+00 moles of the following reaction have been added:

	                 Relative
	Reactant            moles

	CO2                  1.00000

	                 Relative
	Element             moles
	C                    1.00000
	O                    2.00000

-----------------------------------Gas phase-----------------------------------

Total pressure: 789.86      atmospheres 
    Gas volume:   1.00e+00 liters
  Molar volume:   4.40e-02 liters/mole

                                                        Moles in gas
                                            ----------------------------------
Component                log P           P     Initial       Final       Delta

CO2(g)                    2.89   7.811e+02   2.159e+01   2.249e+01   8.999e-01
H2O(g)                    0.94   8.779e+00   2.492e-01   2.528e-01   3.666e-03

-----------------------------Solution composition------------------------------

	Elements           Molality       Moles

	C                 2.517e+00   2.506e+00

----------------------------Description of solution----------------------------

                                       pH  =   2.655      Charge balance
                                       pe  =   8.848      Adjusted to redox equilibrium
                        Activity of water  =   0.956
                 Ionic strength (mol/kgw)  =   2.369e-03
                       Mass of water (kg)  =   9.954e-01
                 Total alkalinity (eq/kg)  =  -3.841e-12
                       Total CO2 (mol/kg)  =   2.517e+00
                         Temperature (°C)  = 150.00
                           Pressure (atm)  = 789.86
                  Electrical balance (eq)  =   3.824e-12
 Percent error, 100*(Cat-|An|)/(Cat+|An|)  =   0.00
                               Iterations  = 238 (439 overall)
                         Gamma iterations  =   3
                      Osmotic coefficient  =   0.99996
                                  Total H  = 1.105142e+02
                                  Total O  = 6.026855e+01

----------------------------Distribution of species----------------------------

                                               Log       Log       Log    mole V
   Species          Molality    Activity  Molality  Activity     Gamma    cmł/mol

   H+              2.369e-03   2.215e-03    -2.625    -2.655    -0.029      0.00
   OH-             5.477e-09   5.121e-09    -8.261    -8.291    -0.029     (0)  
   H2O             5.551e+01   9.556e-01     1.744    -0.020     0.000     18.84
C(-4)         0.000e+00
   CH4             0.000e+00   0.000e+00   -83.187   -83.187     0.000     (0)  
C(4)          2.517e+00
   CO2             2.515e+00   2.515e+00     0.401     0.401     0.000     (0)  
   HCO3-           2.369e-03   2.215e-03    -2.625    -2.655    -0.029     (0)  
   CO3-2           3.529e-10   2.696e-10    -9.452    -9.569    -0.117     (0)  
   CO              3.051e-28   3.051e-28   -27.516   -27.516     0.000     (0)  
H(0)          9.978e-27
   H2              4.989e-27   4.989e-27   -26.302   -26.302     0.000     (0)  
O(0)          4.164e-11
   O2              2.082e-11   2.082e-11   -10.682   -10.682     0.000     (0)  
   CO              3.051e-28   3.051e-28   -27.516   -27.516     0.000     (0)  

------------------------------Saturation indices-------------------------------

  Phase               SI** log IAP   log K(423 K, 790 atm)

  C(cr)           -38.67     -4.18   34.49  C
  CH4(g)          -79.65      6.46   86.12  CH4
  CO(g)           -23.94     -9.52   14.42  CO
  CO2(g)            2.89    -14.86  -17.75  CO2
  H2(g)           -23.00      5.32   28.33  H2
  H2O(g)            0.94     -0.02   -0.96  H2O
  O2(g)            -7.15    -10.68   -3.53  O2

**For a gas, SI = log10(fugacity). Fugacity = pressure * phi / 1 atm.
  For ideal gases, phi = 1.

Reaction step 27.

Using solution 1.	
Using gas phase 1.	
Using temperature 5.	
Using reaction 1.	

Reaction 1.	

	  1.000e+00 moles of the following reaction have been added:

	                 Relative
	Reactant            moles

	CO2                  1.00000

	                 Relative
	Element             moles
	C                    1.00000
	O                    2.00000

-----------------------------------Gas phase-----------------------------------

Total pressure: 821.24      atmospheres 
    Gas volume:   1.00e+00 liters
  Molar volume:   4.23e-02 liters/mole

                                                        Moles in gas
                                            ----------------------------------
Component                log P           P     Initial       Final       Delta

CO2(g)                    2.91   8.123e+02   2.249e+01   2.339e+01   9.000e-01
H2O(g)                    0.95   8.908e+00   2.528e-01   2.565e-01   3.709e-03

-----------------------------Solution composition------------------------------

	Elements           Molality       Moles

	C                 2.618e+00   2.606e+00

----------------------------Description of solution----------------------------

                                       pH  =   2.643      Charge balance
                                       pe  =   8.856      Adjusted to redox equilibrium
                        Activity of water  =   0.954
                 Ionic strength (mol/kgw)  =   2.435e-03
                       Mass of water (kg)  =   9.953e-01
                 Total alkalinity (eq/kg)  =  -3.841e-12
                       Total CO2 (mol/kg)  =   2.618e+00
                         Temperature (°C)  = 150.00
                           Pressure (atm)  = 821.24
                  Electrical balance (eq)  =   3.824e-12
 Percent error, 100*(Cat-|An|)/(Cat+|An|)  =   0.00
                               Iterations  = 287 (488 overall)
                         Gamma iterations  =   3
                      Osmotic coefficient  =   0.99996
                                  Total H  = 1.105068e+02
                                  Total O  = 6.046493e+01

----------------------------Distribution of species----------------------------

                                               Log       Log       Log    mole V
   Species          Molality    Activity  Molality  Activity     Gamma    cmł/mol

   H+              2.435e-03   2.275e-03    -2.613    -2.643    -0.030      0.00
   OH-             5.414e-09   5.058e-09    -8.267    -8.296    -0.030     (0)  
   H2O             5.551e+01   9.539e-01     1.744    -0.021     0.000     18.81
C(-4)         0.000e+00
   CH4             0.000e+00   0.000e+00   -83.158   -83.158     0.000     (0)  
C(4)          2.618e+00
   CO2             2.616e+00   2.616e+00     0.418     0.418     0.000     (0)  
   HCO3-           2.435e-03   2.275e-03    -2.613    -2.643    -0.030     (0)  
   CO3-2           3.539e-10   2.696e-10    -9.451    -9.569    -0.118     (0)  
   CO              3.173e-28   3.173e-28   -27.499   -27.499     0.000     (0)  
H(0)          1.012e-26
   H2              5.062e-27   5.062e-27   -26.296   -26.296     0.000     (0)  
O(0)          4.165e-11
   O2              2.082e-11   2.082e-11   -10.681   -10.681     0.000     (0)  
   CO              3.173e-28   3.173e-28   -27.499   -27.499     0.000     (0)  

------------------------------Saturation indices-------------------------------

  Phase               SI** log IAP   log K(423 K, 821 atm)

  C(cr)           -38.65     -4.15   34.50  C
  CH4(g)          -79.62      6.49   86.11  CH4
  CO(g)           -23.92     -9.49   14.42  CO
  CO2(g)            2.91    -14.83  -17.74  CO2
  H2(g)           -23.00      5.32   28.32  H2
  H2O(g)            0.95     -0.02   -0.97  H2O
  O2(g)            -7.15    -10.68   -3.53  O2

**For a gas, SI = log10(fugacity). Fugacity = pressure * phi / 1 atm.
  For ideal gases, phi = 1.

------------------
End of simulation.
------------------

------------------------------------
Reading input data for simulation 6.
------------------------------------

----------------------------------
End of Run after 0.259768 Seconds.
----------------------------------

